ROOT
HETATM    1  P1  NAD X   1      -1.238  -6.873  -5.066  1.00 20.00     0.418   P
HETATM    2  O1  NAD X   1      -2.518  -6.971  -5.876  1.00 20.00    -0.624  OA
HETATM    3  O2  NAD X   1      -0.594  -8.149  -4.619  1.00 20.00    -0.624  OA
ENDROOT
BRANCH   1   4
HETATM    4  O3  NAD X   1      -1.554  -6.090  -3.645  1.00 20.00    -0.268  OA
BRANCH   4   5
HETATM    5  C1  NAD X   1      -2.728  -5.326  -3.261  1.00 20.00     0.187   C
BRANCH   5   6
HETATM    6  C2  NAD X   1      -3.770  -6.236  -2.669  1.00 20.00     0.181   C
HETATM    7  C3  NAD X   1      -5.189  -5.956  -3.217  1.00 20.00     0.216   C
HETATM    8  C4  NAD X   1      -6.088  -5.897  -1.970  1.00 20.00     0.234   C
HETATM    9  O5  NAD X   1      -5.521  -7.072  -4.080  1.00 20.00    -0.218  OA
HETATM   10  C5  NAD X   1      -5.229  -6.607  -0.891  1.00 20.00     0.241   C
HETATM   11  O6  NAD X   1      -7.315  -6.522  -2.260  1.00 20.00    -0.216  OA
HETATM   12  O4  NAD X   1      -3.897  -6.177  -1.200  1.00 20.00    -0.331  OA
BRANCH  10  13
HETATM   13  N1  NAD X   1      -5.581  -6.284   0.518  1.00 20.00    -0.270   N
HETATM   14  C6  NAD X   1      -6.236  -6.740   1.647  1.00 20.00     0.182   A
HETATM   15  N2  NAD X   1      -6.235  -5.912   2.683  1.00 20.00    -0.219  NA
HETATM   16  C7  NAD X   1      -5.564  -4.793   2.198  1.00 20.00     0.155   A
HETATM   17  C8  NAD X   1      -5.201  -3.606   2.798  1.00 20.00     0.206   A
HETATM   18 C10  NAD X   1      -5.151  -5.012   0.888  1.00 20.00     0.170   A
HETATM   19  N3  NAD X   1      -5.444  -3.305   4.064  1.00 20.00    -0.125   N
HETATM   20  N4  NAD X   1      -4.497  -2.750   2.074  1.00 20.00    -0.202  NA
HETATM   21  C9  NAD X   1      -4.219  -3.039   0.805  1.00 20.00     0.202   A
HETATM   22  N5  NAD X   1      -4.443  -4.151   0.137  1.00 20.00    -0.205  NA
ENDBRANCH  10  13
ENDBRANCH   5   6
ENDBRANCH   4   5
ENDBRANCH   1   4
BRANCH   1  23
HETATM   23  O7  NAD X   1      -0.537  -5.883  -5.982  1.00 20.00    -0.180  OA
BRANCH  23  24
HETATM   24  P2  NAD X   1      -0.237  -4.417  -5.929  1.00 20.00     0.418   P
HETATM   25  O8  NAD X   1       1.055  -4.323  -5.178  1.00 20.00    -0.624  OA
HETATM   26  O9  NAD X   1      -1.372  -3.483  -5.690  1.00 20.00    -0.624  OA
BRANCH  24  27
HETATM   27 O10  NAD X   1       0.428  -4.241  -7.382  1.00 20.00    -0.268  OA
BRANCH  27  28
HETATM   28 C11  NAD X   1       0.248  -5.152  -8.462  1.00 20.00     0.187   C
BRANCH  28  29
HETATM   29 C12  NAD X   1      -0.989  -6.008  -8.158  1.00 20.00     0.181   C
HETATM   30 O11  NAD X   1      -1.738  -5.430  -7.046  1.00 20.00    -0.331  OA
HETATM   31 C15  NAD X   1      -3.100  -5.514  -7.457  1.00 20.00     0.239   C
HETATM   32 C14  NAD X   1      -3.070  -5.229  -8.938  1.00 20.00     0.234   C
HETATM   33 C13  NAD X   1      -1.909  -6.055  -9.378  1.00 20.00     0.216   C
HETATM   34 O13  NAD X   1      -4.245  -5.738  -9.496  1.00 20.00    -0.216  OA
HETATM   35 O12  NAD X   1      -2.306  -7.370  -9.518  1.00 20.00    -0.218  OA
BRANCH  31  36
HETATM   36  N6  NAD X   1      -3.938  -4.615  -6.684  1.00 20.00    -0.301   N
HETATM   37 C16  NAD X   1      -4.120  -3.343  -7.210  1.00 20.00     0.082   C
HETATM   38 C17  NAD X   1      -4.907  -2.324  -6.757  1.00 20.00     0.063   C
HETATM   39 C19  NAD X   1      -5.390  -2.685  -5.532  1.00 20.00     0.007   C
HETATM   40 C20  NAD X   1      -5.173  -3.901  -4.829  1.00 20.00     0.019   C
HETATM   41 C21  NAD X   1      -4.421  -4.931  -5.466  1.00 20.00     0.078   C
BRANCH  38  42
HETATM   42 C18  NAD X   1      -5.069  -0.971  -7.315  1.00 20.00     0.234   C
HETATM   43  N7  NAD X   1      -5.266   0.116  -6.585  1.00 20.00    -0.118   N
HETATM   44 O14  NAD X   1      -5.165  -0.714  -8.625  1.00 20.00    -0.167  OA
ENDBRANCH  38  42
ENDBRANCH  31  36
ENDBRANCH  28  29
ENDBRANCH  27  28
ENDBRANCH  24  27
ENDBRANCH  23  24
ENDBRANCH   1  23
TORSDOF 11