ROOT
HETATM    1  P1  NAD X   1       1.862  -5.687  -6.682  1.00 20.00     0.418   P
HETATM    2  O1  NAD X   1       0.495  -5.696  -7.339  1.00 20.00    -0.624  OA
HETATM    3  O2  NAD X   1       3.052  -5.992  -7.538  1.00 20.00    -0.624  OA
ENDROOT
BRANCH   1   4
HETATM    4  O3  NAD X   1       1.916  -6.867  -5.525  1.00 20.00    -0.268  OA
BRANCH   4   5
HETATM    5  C1  NAD X   1       2.953  -7.851  -5.268  1.00 20.00     0.187   C
BRANCH   5   6
HETATM    6  C2  NAD X   1       2.409  -9.242  -5.454  1.00 20.00     0.181   C
HETATM    7  C3  NAD X   1       1.171  -9.522  -4.573  1.00 20.00     0.216   C
HETATM    8  C4  NAD X   1       1.453 -10.886  -3.919  1.00 20.00     0.234   C
HETATM    9  O5  NAD X   1       0.034  -9.569  -5.470  1.00 20.00    -0.218  OA
HETATM   10  C5  NAD X   1       2.564 -11.479  -4.824  1.00 20.00     0.241   C
HETATM   11  O6  NAD X   1       0.259 -11.630  -3.877  1.00 20.00    -0.216  OA
HETATM   12  O4  NAD X   1       3.357 -10.333  -5.159  1.00 20.00    -0.331  OA
BRANCH  10  13
HETATM   13  N1  NAD X   1       3.397 -12.541  -4.198  1.00 20.00    -0.270   N
HETATM   14  C6  NAD X   1       3.513 -13.384  -3.108  1.00 20.00     0.182   A
HETATM   15  N2  NAD X   1       4.594 -14.152  -3.090  1.00 20.00    -0.219  NA
HETATM   16  C7  NAD X   1       5.282 -13.764  -4.237  1.00 20.00     0.155   A
HETATM   17  C8  NAD X   1       6.456 -14.213  -4.803  1.00 20.00     0.206   A
HETATM   18 C10  NAD X   1       4.559 -12.794  -4.924  1.00 20.00     0.170   A
HETATM   19  N3  NAD X   1       7.194 -15.194  -4.309  1.00 20.00    -0.125   N
HETATM   20  N4  NAD X   1       6.819 -13.675  -5.956  1.00 20.00    -0.202  NA
HETATM   21  C9  NAD X   1       6.081 -12.702  -6.486  1.00 20.00     0.202   A
HETATM   22  N5  NAD X   1       4.916 -12.232  -6.092  1.00 20.00    -0.205  NA
ENDBRANCH  10  13
ENDBRANCH   5   6
ENDBRANCH   4   5
ENDBRANCH   1   4
BRANCH   1  23
HETATM   23  O7  NAD X   1       1.693  -4.358  -5.964  1.00 20.00    -0.180  OA
BRANCH  23  24
HETATM   24  P2  NAD X   1       0.971  -3.079  -6.255  1.00 20.00     0.418   P
HETATM   25  O8  NAD X   1       0.980  -2.971  -7.749  1.00 20.00    -0.624  OA
HETATM   26  O9  NAD X   1       1.237  -1.913  -5.367  1.00 20.00    -0.624  OA
BRANCH  24  27
HETATM   27 O10  NAD X   1      -0.542  -3.612  -6.158  1.00 20.00    -0.268  OA
BRANCH  27  28
HETATM   28 C11  NAD X   1      -0.950  -4.934  -6.499  1.00 20.00     0.187   C
BRANCH  28  29
HETATM   29 C12  NAD X   1      -2.289  -5.210  -5.802  1.00 20.00     0.181   C
HETATM   30 O11  NAD X   1      -3.394  -4.962  -6.721  1.00 20.00    -0.331  OA
HETATM   31 C15  NAD X   1      -4.278  -6.061  -6.514  1.00 20.00     0.239   C
HETATM   32 C14  NAD X   1      -3.371  -7.244  -6.290  1.00 20.00     0.234   C
HETATM   33 C13  NAD X   1      -2.358  -6.672  -5.357  1.00 20.00     0.216   C
HETATM   34 O13  NAD X   1      -4.109  -8.231  -5.631  1.00 20.00    -0.216  OA
HETATM   35 O12  NAD X   1      -2.866  -6.666  -4.073  1.00 20.00    -0.218  OA
BRANCH  31  36
HETATM   36  N6  NAD X   1      -5.202  -6.208  -7.625  1.00 20.00    -0.301   N
HETATM   37 C16  NAD X   1      -4.637  -6.521  -8.854  1.00 20.00     0.082   C
HETATM   38 C17  NAD X   1      -5.249  -6.796 -10.042  1.00 20.00     0.063   C
HETATM   39 C19  NAD X   1      -6.580  -6.531  -9.896  1.00 20.00     0.007   C
HETATM   40 C20  NAD X   1      -7.261  -6.082  -8.731  1.00 20.00     0.019   C
HETATM   41 C21  NAD X   1      -6.519  -5.942  -7.522  1.00 20.00     0.078   C
BRANCH  38  42
HETATM   42 C18  NAD X   1      -4.632  -7.103 -11.344  1.00 20.00     0.234   C
HETATM   43  N7  NAD X   1      -3.660  -6.390 -11.892  1.00 20.00    -0.118   N
HETATM   44 O14  NAD X   1      -5.077  -8.056 -12.172  1.00 20.00    -0.167  OA
ENDBRANCH  38  42
ENDBRANCH  31  36
ENDBRANCH  28  29
ENDBRANCH  27  28
ENDBRANCH  24  27
ENDBRANCH  23  24
ENDBRANCH   1  23
TORSDOF 11