ROOT
HETATM    1  P1  NAD X   1       0.680  -4.315  -6.682  1.00 20.00     0.418   P
HETATM    2  O1  NAD X   1      -0.688  -4.324  -7.339  1.00 20.00    -0.624  OA
HETATM    3  O2  NAD X   1       1.870  -4.620  -7.538  1.00 20.00    -0.624  OA
ENDROOT
BRANCH   1   4
HETATM    4  O3  NAD X   1       0.734  -5.495  -5.525  1.00 20.00    -0.268  OA
BRANCH   4   5
HETATM    5  C1  NAD X   1       1.771  -6.479  -5.268  1.00 20.00     0.187   C
BRANCH   5   6
HETATM    6  C2  NAD X   1       1.968  -7.355  -6.475  1.00 20.00     0.181   C
HETATM    7  C3  NAD X   1       0.664  -8.052  -6.927  1.00 20.00     0.216   C
HETATM    8  C4  NAD X   1       1.058  -9.525  -7.137  1.00 20.00     0.234   C
HETATM    9  O5  NAD X   1       0.265  -7.411  -8.163  1.00 20.00    -0.218  OA
HETATM   10  C5  NAD X   1       2.602  -9.456  -7.257  1.00 20.00     0.241   C
HETATM   11  O6  NAD X   1       0.394 -10.019  -8.275  1.00 20.00    -0.216  OA
HETATM   12  O4  NAD X   1       2.957  -8.438  -6.312  1.00 20.00    -0.331  OA
BRANCH  10  13
HETATM   13  N1  NAD X   1       3.322 -10.726  -6.968  1.00 20.00    -0.270   N
HETATM   14  C6  NAD X   1       3.167 -12.084  -6.759  1.00 20.00     0.182   A
HETATM   15  N2  NAD X   1       4.281 -12.752  -6.487  1.00 20.00    -0.219  NA
HETATM   16  C7  NAD X   1       5.255 -11.757  -6.470  1.00 20.00     0.155   A
HETATM   17  C8  NAD X   1       6.620 -11.809  -6.285  1.00 20.00     0.206   A
HETATM   18 C10  NAD X   1       4.686 -10.524  -6.772  1.00 20.00     0.170   A
HETATM   19  N3  NAD X   1       7.304 -12.924  -6.085  1.00 20.00    -0.125   N
HETATM   20  N4  NAD X   1       7.291 -10.673  -6.394  1.00 20.00    -0.202  NA
HETATM   21  C9  NAD X   1       6.629  -9.541  -6.618  1.00 20.00     0.202   A
HETATM   22  N5  NAD X   1       5.351  -9.361  -6.880  1.00 20.00    -0.205  NA
ENDBRANCH  10  13
ENDBRANCH   5   6
ENDBRANCH   4   5
ENDBRANCH   1   4
BRANCH   1  23
HETATM   23  O7  NAD X   1       0.510  -2.985  -5.964  1.00 20.00    -0.180  OA
BRANCH  23  24
HETATM   24  P2  NAD X   1      -0.211  -1.706  -6.255  1.00 20.00     0.418   P
HETATM   25  O8  NAD X   1      -0.202  -1.599  -7.749  1.00 20.00    -0.624  OA
HETATM   26  O9  NAD X   1       0.054  -0.541  -5.367  1.00 20.00    -0.624  OA
BRANCH  24  27
HETATM   27 O10  NAD X   1      -1.724  -2.240  -6.158  1.00 20.00    -0.268  OA
BRANCH  27  28
HETATM   28 C11  NAD X   1      -2.873  -1.457  -6.471  1.00 20.00     0.187   C
BRANCH  28  29
HETATM   29 C12  NAD X   1      -3.867  -2.355  -7.219  1.00 20.00     0.181   C
HETATM   30 O11  NAD X   1      -3.183  -3.086  -8.281  1.00 20.00    -0.331  OA
HETATM   31 C15  NAD X   1      -3.700  -4.411  -8.185  1.00 20.00     0.239   C
HETATM   32 C14  NAD X   1      -3.859  -4.653  -6.705  1.00 20.00     0.234   C
HETATM   33 C13  NAD X   1      -4.481  -3.374  -6.259  1.00 20.00     0.216   C
HETATM   34 O13  NAD X   1      -4.768  -5.700  -6.538  1.00 20.00    -0.216  OA
HETATM   35 O12  NAD X   1      -5.835  -3.401  -6.529  1.00 20.00    -0.218  OA
BRANCH  31  36
HETATM   36  N6  NAD X   1      -2.837  -5.361  -8.865  1.00 20.00    -0.301   N
HETATM   37 C16  NAD X   1      -1.559  -5.511  -8.342  1.00 20.00     0.082   C
HETATM   38 C17  NAD X   1      -0.570  -6.375  -8.713  1.00 20.00     0.063   C
HETATM   39 C19  NAD X   1      -0.966  -6.994  -9.863  1.00 20.00     0.007   C
HETATM   40 C20  NAD X   1      -2.191  -6.832 -10.567  1.00 20.00     0.019   C
HETATM   41 C21  NAD X   1      -3.188  -5.981 -10.009  1.00 20.00     0.078   C
BRANCH  38  42
HETATM   42 C18  NAD X   1       0.791  -6.503  -8.162  1.00 20.00     0.234   C
HETATM   43  N7  NAD X   1       1.889  -6.555  -8.898  1.00 20.00    -0.118   N
HETATM   44 O14  NAD X   1       1.051  -6.713  -6.865  1.00 20.00    -0.167  OA
ENDBRANCH  38  42
ENDBRANCH  31  36
ENDBRANCH  28  29
ENDBRANCH  27  28
ENDBRANCH  24  27
ENDBRANCH  23  24
ENDBRANCH   1  23
TORSDOF 11