ROOT
HETATM    1  P1  NAD X   1       3.029  -8.606  -4.677  1.00 20.00     0.418   P
HETATM    2  O1  NAD X   1       2.466  -9.381  -5.854  1.00 20.00    -0.624  OA
HETATM    3  O2  NAD X   1       4.397  -8.969  -4.189  1.00 20.00    -0.624  OA
ENDROOT
BRANCH   1   4
HETATM    4  O3  NAD X   1       2.075  -8.863  -3.351  1.00 20.00    -0.268  OA
BRANCH   4   5
HETATM    5  C1  NAD X   1       0.751  -9.457  -3.277  1.00 20.00     0.187   C
BRANCH   5   6
HETATM    6  C2  NAD X   1       0.319  -9.937  -4.636  1.00 20.00     0.181   C
HETATM    7  C3  NAD X   1       1.146 -11.145  -5.134  1.00 20.00     0.216   C
HETATM    8  C4  NAD X   1       1.537 -10.785  -6.578  1.00 20.00     0.234   C
HETATM    9  O5  NAD X   1       0.266 -12.294  -5.076  1.00 20.00    -0.218  OA
HETATM   10  C5  NAD X   1       0.529  -9.664  -6.940  1.00 20.00     0.241   C
HETATM   11  O6  NAD X   1       1.454 -11.941  -7.377  1.00 20.00    -0.216  OA
HETATM   12  O4  NAD X   1       0.402  -8.933  -5.714  1.00 20.00    -0.331  OA
BRANCH  10  13
HETATM   13  N1  NAD X   1       0.944  -8.769  -8.055  1.00 20.00    -0.270   N
HETATM   14  C6  NAD X   1       0.645  -8.363  -9.342  1.00 20.00     0.182   A
HETATM   15  N2  NAD X   1       1.481  -7.479  -9.872  1.00 20.00    -0.219  NA
HETATM   16  C7  NAD X   1       2.442  -7.311  -8.878  1.00 20.00     0.155   A
HETATM   17  C8  NAD X   1       3.551  -6.496  -8.799  1.00 20.00     0.206   A
HETATM   18 C10  NAD X   1       2.120  -8.080  -7.765  1.00 20.00     0.170   A
HETATM   19  N3  NAD X   1       3.920  -5.646  -9.744  1.00 20.00    -0.125   N
HETATM   20  N4  NAD X   1       4.241  -6.518  -7.671  1.00 20.00    -0.202  NA
HETATM   21  C9  NAD X   1       3.878  -7.349  -6.697  1.00 20.00     0.202   A
HETATM   22  N5  NAD X   1       2.813  -8.120  -6.614  1.00 20.00    -0.205  NA
ENDBRANCH  10  13
ENDBRANCH   5   6
ENDBRANCH   4   5
ENDBRANCH   1   4
BRANCH   1  23
HETATM   23  O7  NAD X   1       2.694  -7.223  -5.213  1.00 20.00    -0.180  OA
BRANCH  23  24
HETATM   24  P2  NAD X   1       1.438  -6.425  -5.381  1.00 20.00     0.418   P
HETATM   25  O8  NAD X   1       1.250  -5.736  -4.065  1.00 20.00    -0.624  OA
HETATM   26  O9  NAD X   1       0.311  -7.051  -6.126  1.00 20.00    -0.624  OA
BRANCH  24  27
HETATM   27 O10  NAD X   1       2.051  -5.141  -6.130  1.00 20.00    -0.268  OA
BRANCH  27  28
HETATM   28 C11  NAD X   1       3.375  -5.074  -6.652  1.00 20.00     0.187   C
BRANCH  28  29
HETATM   29 C12  NAD X   1       3.424  -5.927  -7.927  1.00 20.00     0.181   C
HETATM   30 O11  NAD X   1       2.071  -6.275  -8.350  1.00 20.00    -0.331  OA
HETATM   31 C15  NAD X   1       2.083  -6.078  -9.762  1.00 20.00     0.239   C
HETATM   32 C14  NAD X   1       2.946  -4.859  -9.971  1.00 20.00     0.234   C
HETATM   33 C13  NAD X   1       4.090  -5.143  -9.058  1.00 20.00     0.216   C
HETATM   34 O13  NAD X   1       3.389  -4.869 -11.296  1.00 20.00    -0.216  OA
HETATM   35 O12  NAD X   1       4.965  -6.015  -9.676  1.00 20.00    -0.218  OA
BRANCH  31  36
HETATM   36  N6  NAD X   1       0.733  -5.961 -10.287  1.00 20.00    -0.301   N
HETATM   37 C16  NAD X   1       0.074  -4.768 -10.022  1.00 20.00     0.082   C
HETATM   38 C17  NAD X   1      -1.151  -4.345 -10.448  1.00 20.00     0.063   C
HETATM   39 C19  NAD X   1      -1.763  -5.397 -11.067  1.00 20.00     0.007   C
HETATM   40 C20  NAD X   1      -1.248  -6.704 -11.286  1.00 20.00     0.019   C
HETATM   41 C21  NAD X   1       0.092  -6.981 -10.891  1.00 20.00     0.078   C
BRANCH  38  42
HETATM   42 C18  NAD X   1      -1.846  -3.084 -10.136  1.00 20.00     0.234   C
HETATM   43  N7  NAD X   1      -2.372  -2.796  -8.956  1.00 20.00    -0.118   N
HETATM   44 O14  NAD X   1      -2.136  -2.149 -11.050  1.00 20.00    -0.167  OA
ENDBRANCH  38  42
ENDBRANCH  31  36
ENDBRANCH  28  29
ENDBRANCH  27  28
ENDBRANCH  24  27
ENDBRANCH  23  24
ENDBRANCH   1  23
TORSDOF 11