ROOT
HETATM    1  P1  NAD X   1      -0.641  -5.591  -6.682  1.00 20.00     0.418   P
HETATM    2  O1  NAD X   1      -2.008  -5.600  -7.339  1.00 20.00    -0.624  OA
HETATM    3  O2  NAD X   1       0.549  -5.896  -7.538  1.00 20.00    -0.624  OA
ENDROOT
BRANCH   1   4
HETATM    4  O3  NAD X   1      -0.587  -6.771  -5.525  1.00 20.00    -0.268  OA
BRANCH   4   5
HETATM    5  C1  NAD X   1       0.450  -7.755  -5.268  1.00 20.00     0.187   C
BRANCH   5   6
HETATM    6  C2  NAD X   1       0.648  -8.631  -6.475  1.00 20.00     0.181   C
HETATM    7  C3  NAD X   1      -0.656  -9.329  -6.927  1.00 20.00     0.216   C
HETATM    8  C4  NAD X   1      -0.263 -10.801  -7.137  1.00 20.00     0.234   C
HETATM    9  O5  NAD X   1      -1.055  -8.687  -8.163  1.00 20.00    -0.218  OA
HETATM   10  C5  NAD X   1       1.282 -10.732  -7.257  1.00 20.00     0.241   C
HETATM   11  O6  NAD X   1      -0.927 -11.295  -8.275  1.00 20.00    -0.216  OA
HETATM   12  O4  NAD X   1       1.637  -9.714  -6.312  1.00 20.00    -0.331  OA
BRANCH  10  13
HETATM   13  N1  NAD X   1       2.001 -12.002  -6.968  1.00 20.00    -0.270   N
HETATM   14  C6  NAD X   1       1.847 -13.360  -6.759  1.00 20.00     0.182   A
HETATM   15  N2  NAD X   1       2.961 -14.028  -6.487  1.00 20.00    -0.219  NA
HETATM   16  C7  NAD X   1       3.934 -13.033  -6.470  1.00 20.00     0.155   A
HETATM   17  C8  NAD X   1       5.300 -13.085  -6.285  1.00 20.00     0.206   A
HETATM   18 C10  NAD X   1       3.366 -11.800  -6.772  1.00 20.00     0.170   A
HETATM   19  N3  NAD X   1       5.983 -14.200  -6.085  1.00 20.00    -0.125   N
HETATM   20  N4  NAD X   1       5.970 -11.949  -6.394  1.00 20.00    -0.202  NA
HETATM   21  C9  NAD X   1       5.309 -10.817  -6.618  1.00 20.00     0.202   A
HETATM   22  N5  NAD X   1       4.031 -10.637  -6.880  1.00 20.00    -0.205  NA
ENDBRANCH  10  13
ENDBRANCH   5   6
ENDBRANCH   4   5
ENDBRANCH   1   4
BRANCH   1  23
HETATM   23  O7  NAD X   1      -0.810  -4.261  -5.964  1.00 20.00    -0.180  OA
BRANCH  23  24
HETATM   24  P2  NAD X   1      -1.531  -2.983  -6.255  1.00 20.00     0.418   P
HETATM   25  O8  NAD X   1      -1.523  -2.875  -7.749  1.00 20.00    -0.624  OA
HETATM   26  O9  NAD X   1      -1.266  -1.817  -5.367  1.00 20.00    -0.624  OA
BRANCH  24  27
HETATM   27 O10  NAD X   1      -3.045  -3.516  -6.158  1.00 20.00    -0.268  OA
BRANCH  27  28
HETATM   28 C11  NAD X   1      -3.412  -4.798  -5.655  1.00 20.00     0.187   C
BRANCH  28  29
HETATM   29 C12  NAD X   1      -4.681  -4.628  -4.808  1.00 20.00     0.181   C
HETATM   30 O11  NAD X   1      -4.520  -3.511  -3.882  1.00 20.00    -0.331  OA
HETATM   31 C15  NAD X   1      -5.760  -2.813  -3.954  1.00 20.00     0.239   C
HETATM   32 C14  NAD X   1      -6.164  -2.898  -5.404  1.00 20.00     0.234   C
HETATM   33 C13  NAD X   1      -5.879  -4.330  -5.710  1.00 20.00     0.216   C
HETATM   34 O13  NAD X   1      -7.540  -2.668  -5.481  1.00 20.00    -0.216  OA
HETATM   35 O12  NAD X   1      -6.919  -5.114  -5.251  1.00 20.00    -0.218  OA
BRANCH  31  36
HETATM   36  N6  NAD X   1      -5.632  -1.461  -3.439  1.00 20.00    -0.301   N
HETATM   37 C16  NAD X   1      -4.785  -0.615  -4.143  1.00 20.00     0.082   C
HETATM   38 C17  NAD X   1      -4.531   0.711  -3.949  1.00 20.00     0.063   C
HETATM   39 C19  NAD X   1      -5.127   1.083  -2.779  1.00 20.00     0.007   C
HETATM   40 C20  NAD X   1      -5.910   0.282  -1.902  1.00 20.00     0.019   C
HETATM   41 C21  NAD X   1      -6.194  -1.062  -2.281  1.00 20.00     0.078   C
BRANCH  38  42
HETATM   42 C18  NAD X   1      -3.609   1.588  -4.692  1.00 20.00     0.234   C
HETATM   43  N7  NAD X   1      -2.729   2.395  -4.121  1.00 20.00    -0.118   N
HETATM   44 O14  NAD X   1      -3.652   1.758  -6.019  1.00 20.00    -0.167  OA
ENDBRANCH  38  42
ENDBRANCH  31  36
ENDBRANCH  28  29
ENDBRANCH  27  28
ENDBRANCH  24  27
ENDBRANCH  23  24
ENDBRANCH   1  23
TORSDOF 11