ROOT
HETATM    1  P1  NAD X   1       4.676  13.752 -14.511  1.00 20.00     0.418   P
HETATM    2  O1  NAD X   1       4.528  12.386 -13.867  1.00 20.00    -0.624  OA
HETATM    3  O2  NAD X   1       6.043  14.361 -14.555  1.00 20.00    -0.624  OA
ENDROOT
BRANCH   1   4
HETATM    4  O3  NAD X   1       3.796  14.856 -13.651  1.00 20.00    -0.268  OA
BRANCH   4   5
HETATM    5  C1  NAD X   1       2.414  15.266 -13.831  1.00 20.00     0.187   C
BRANCH   5   6
HETATM    6  C2  NAD X   1       2.180  15.699 -15.253  1.00 20.00     0.181   C
HETATM    7  C3  NAD X   1       3.372  16.490 -15.840  1.00 20.00     0.216   C
HETATM    8  C4  NAD X   1       2.737  17.727 -16.499  1.00 20.00     0.234   C
HETATM    9  O5  NAD X   1       4.004  15.617 -16.808  1.00 20.00    -0.218  OA
HETATM   10  C5  NAD X   1       1.252  17.311 -16.655  1.00 20.00     0.241   C
HETATM   11  O6  NAD X   1       3.409  17.999 -17.704  1.00 20.00    -0.216  OA
HETATM   12  O4  NAD X   1       0.998  16.556 -15.463  1.00 20.00    -0.331  OA
BRANCH  10  13
HETATM   13  N1  NAD X   1       0.286  18.434 -16.791  1.00 20.00    -0.270   N
HETATM   14  C6  NAD X   1      -1.048  18.758 -16.960  1.00 20.00     0.182   A
HETATM   15  N2  NAD X   1      -1.315  20.054 -17.055  1.00 20.00    -0.219  NA
HETATM   16  C7  NAD X   1      -0.057  20.646 -16.988  1.00 20.00     0.155   A
HETATM   17  C8  NAD X   1       0.340  21.967 -16.990  1.00 20.00     0.206   A
HETATM   18 C10  NAD X   1       0.922  19.674 -16.816  1.00 20.00     0.170   A
HETATM   19  N3  NAD X   1      -0.491  22.995 -17.052  1.00 20.00    -0.125   N
HETATM   20  N4  NAD X   1       1.632  22.212 -16.844  1.00 20.00    -0.202  NA
HETATM   21  C9  NAD X   1       2.487  21.196 -16.757  1.00 20.00     0.202   A
HETATM   22  N5  NAD X   1       2.239  19.905 -16.673  1.00 20.00    -0.205  NA
ENDBRANCH  10  13
ENDBRANCH   5   6
ENDBRANCH   4   5
ENDBRANCH   1   4
BRANCH   1  23
HETATM   23  O7  NAD X   1       3.887  13.427 -15.770  1.00 20.00    -0.180  OA
BRANCH  23  24
HETATM   24  P2  NAD X   1       4.223  12.876 -17.121  1.00 20.00     0.418   P
HETATM   25  O8  NAD X   1       5.357  13.725 -17.604  1.00 20.00    -0.624  OA
HETATM   26  O9  NAD X   1       3.096  12.466 -18.004  1.00 20.00    -0.624  OA
BRANCH  24  27
HETATM   27 O10  NAD X   1       5.149  11.642 -16.669  1.00 20.00    -0.268  OA
BRANCH  27  28
HETATM   28 C11  NAD X   1       5.603  10.616 -17.547  1.00 20.00     0.187   C
BRANCH  28  29
HETATM   29 C12  NAD X   1       4.443   9.638 -17.773  1.00 20.00     0.181   C
HETATM   30 O11  NAD X   1       3.321  10.326 -18.403  1.00 20.00    -0.331  OA
HETATM   31 C15  NAD X   1       2.873   9.421 -19.409  1.00 20.00     0.239   C
HETATM   32 C14  NAD X   1       4.135   8.797 -19.951  1.00 20.00     0.234   C
HETATM   33 C13  NAD X   1       4.885   8.502 -18.696  1.00 20.00     0.216   C
HETATM   34 O13  NAD X   1       3.785   7.600 -20.580  1.00 20.00    -0.216  OA
HETATM   35 O12  NAD X   1       4.405   7.334 -18.137  1.00 20.00    -0.218  OA
BRANCH  31  36
HETATM   36  N6  NAD X   1       2.059  10.100 -20.401  1.00 20.00    -0.301   N
HETATM   37 C16  NAD X   1       1.434   9.291 -21.340  1.00 20.00     0.082   C
HETATM   38 C17  NAD X   1       0.556   9.631 -22.328  1.00 20.00     0.063   C
HETATM   39 C19  NAD X   1       0.508  10.994 -22.390  1.00 20.00     0.007   C
HETATM   40 C20  NAD X   1       1.197  11.933 -21.575  1.00 20.00     0.019   C
HETATM   41 C21  NAD X   1       1.998  11.443 -20.502  1.00 20.00     0.078   C
BRANCH  38  42
HETATM   42 C18  NAD X   1      -0.079   8.760 -23.332  1.00 20.00     0.234   C
HETATM   43  N7  NAD X   1       0.061   8.909 -24.640  1.00 20.00    -0.118   N
HETATM   44 O14  NAD X   1      -0.971   7.808 -23.032  1.00 20.00    -0.167  OA
ENDBRANCH  38  42
ENDBRANCH  31  36
ENDBRANCH  28  29
ENDBRANCH  27  28
ENDBRANCH  24  27
ENDBRANCH  23  24
ENDBRANCH   1  23
TORSDOF 11