ROOT
HETATM    1  P1  NAD X   1       2.670  -6.078  -8.215  1.00 20.00     0.418   P
HETATM    2  O1  NAD X   1       1.826  -7.147  -8.883  1.00 20.00    -0.624  OA
HETATM    3  O2  NAD X   1       3.620  -5.299  -9.071  1.00 20.00    -0.624  OA
ENDROOT
BRANCH   1   4
HETATM    4  O3  NAD X   1       3.662  -6.788  -7.099  1.00 20.00    -0.268  OA
BRANCH   4   5
HETATM    5  C1  NAD X   1       4.413  -6.173  -6.018  1.00 20.00     0.187   C
BRANCH   5   6
HETATM    6  C2  NAD X   1       3.628  -5.038  -5.418  1.00 20.00     0.181   C
HETATM    7  C3  NAD X   1       2.503  -5.523  -4.475  1.00 20.00     0.216   C
HETATM    8  C4  NAD X   1       1.258  -4.728  -4.906  1.00 20.00     0.234   C
HETATM    9  O5  NAD X   1       2.927  -5.191  -3.130  1.00 20.00    -0.218  OA
HETATM   10  C5  NAD X   1       1.864  -3.544  -5.704  1.00 20.00     0.241   C
HETATM   11  O6  NAD X   1       0.529  -4.362  -3.759  1.00 20.00    -0.216  OA
HETATM   12  O4  NAD X   1       2.968  -4.146  -6.391  1.00 20.00    -0.331  OA
BRANCH  10  13
HETATM   13  N1  NAD X   1       0.937  -2.880  -6.660  1.00 20.00    -0.270   N
HETATM   14  C6  NAD X   1       0.687  -1.713  -7.359  1.00 20.00     0.182   A
HETATM   15  N2  NAD X   1      -0.418  -1.711  -8.094  1.00 20.00    -0.219  NA
HETATM   16  C7  NAD X   1      -0.976  -2.961  -7.835  1.00 20.00     0.155   A
HETATM   17  C8  NAD X   1      -2.105  -3.583  -8.325  1.00 20.00     0.206   A
HETATM   18 C10  NAD X   1      -0.156  -3.684  -6.975  1.00 20.00     0.170   A
HETATM   19  N3  NAD X   1      -2.922  -3.049  -9.219  1.00 20.00    -0.125   N
HETATM   20  N4  NAD X   1      -2.335  -4.823  -7.926  1.00 20.00    -0.202  NA
HETATM   21  C9  NAD X   1      -1.516  -5.391  -7.044  1.00 20.00     0.202   A
HETATM   22  N5  NAD X   1      -0.379  -4.941  -6.555  1.00 20.00    -0.205  NA
ENDBRANCH  10  13
ENDBRANCH   5   6
ENDBRANCH   4   5
ENDBRANCH   1   4
BRANCH   1  23
HETATM   23  O7  NAD X   1       1.531  -5.419  -7.454  1.00 20.00    -0.180  OA
BRANCH  23  24
HETATM   24  P2  NAD X   1       0.864  -4.080  -7.491  1.00 20.00     0.418   P
HETATM   25  O8  NAD X   1      -0.558  -4.375  -7.857  1.00 20.00    -0.624  OA
HETATM   26  O9  NAD X   1       1.622  -2.942  -8.081  1.00 20.00    -0.624  OA
BRANCH  24  27
HETATM   27 O10  NAD X   1       0.574  -3.895  -5.921  1.00 20.00    -0.268  OA
BRANCH  27  28
HETATM   28 C11  NAD X   1      -0.531  -4.479  -5.235  1.00 20.00     0.187   C
BRANCH  28  29
HETATM   29 C12  NAD X   1      -1.614  -4.801  -6.273  1.00 20.00     0.181   C
HETATM   30 O11  NAD X   1      -2.876  -4.175  -5.892  1.00 20.00    -0.331  OA
HETATM   31 C15  NAD X   1      -3.380  -3.629  -7.108  1.00 20.00     0.239   C
HETATM   32 C14  NAD X   1      -2.158  -3.125  -7.835  1.00 20.00     0.234   C
HETATM   33 C13  NAD X   1      -1.208  -4.258  -7.643  1.00 20.00     0.216   C
HETATM   34 O13  NAD X   1      -2.482  -3.010  -9.189  1.00 20.00    -0.216  OA
HETATM   35 O12  NAD X   1      -1.488  -5.254  -8.558  1.00 20.00    -0.218  OA
BRANCH  31  36
HETATM   36  N6  NAD X   1      -4.390  -2.618  -6.851  1.00 20.00    -0.301   N
HETATM   37 C16  NAD X   1      -3.923  -1.348  -6.541  1.00 20.00     0.082   C
HETATM   38 C17  NAD X   1      -4.623  -0.196  -6.334  1.00 20.00     0.063   C
HETATM   39 C19  NAD X   1      -5.949  -0.516  -6.293  1.00 20.00     0.007   C
HETATM   40 C20  NAD X   1      -6.547  -1.795  -6.464  1.00 20.00     0.019   C
HETATM   41 C21  NAD X   1      -5.707  -2.900  -6.789  1.00 20.00     0.078   C
BRANCH  38  42
HETATM   42 C18  NAD X   1      -4.110   1.140  -5.982  1.00 20.00     0.234   C
HETATM   43  N7  NAD X   1      -3.943   2.125  -6.850  1.00 20.00    -0.118   N
HETATM   44 O14  NAD X   1      -3.635   1.458  -4.771  1.00 20.00    -0.167  OA
ENDBRANCH  38  42
ENDBRANCH  31  36
ENDBRANCH  28  29
ENDBRANCH  27  28
ENDBRANCH  24  27
ENDBRANCH  23  24
ENDBRANCH   1  23
TORSDOF 11