ROOT
HETATM    1  C1  KNI B 900       3.370   6.367  13.551  1.00 31.81     0.117   A
HETATM    2  C2  KNI B 900       4.036   5.410  14.294  1.00 31.46     0.034   A
HETATM    3  C3  KNI B 900       5.072   5.795  15.164  1.00 30.02     0.010   A
HETATM    4  C4  KNI B 900       5.360   7.136  15.216  1.00 31.19    -0.006   A
HETATM    5  C5  KNI B 900       4.601   8.041  14.403  1.00 31.22     0.128   A
HETATM    6  C6  KNI B 900       5.788   4.834  15.953  1.00 28.81     0.080   A
HETATM    7  C7  KNI B 900       6.798   5.311  16.781  1.00 29.66     0.038   A
HETATM    8  C8  KNI B 900       7.094   6.654  16.838  1.00 32.04     0.004   A
HETATM    9  C9  KNI B 900       6.398   7.590  16.074  1.00 32.83     0.014   A
HETATM   10  N1  KNI B 900       3.625   7.659  13.579  1.00 32.44    -0.272  NA
ENDROOT
BRANCH   6  11
HETATM   11  O1  KNI B 900       5.458   3.487  15.854  1.00 25.21    -0.341  OA
BRANCH  11  12
HETATM   12 C10  KNI B 900       6.214   2.635  16.669  1.00 22.94     0.278   C
BRANCH  12  13
HETATM   13 C11  KNI B 900       5.335   1.536  17.139  1.00 20.49     0.242   C
HETATM   14  O3  KNI B 900       4.587   0.959  16.372  1.00 22.09    -0.271  OA
HETATM   15  N2  KNI B 900       5.441   1.217  18.416  1.00 21.41    -0.345   N
HETATM   16 HN2  KNI B 900       6.100   1.672  19.011  1.00 15.00     0.163  HD
BRANCH  15  17
HETATM   17 C26  KNI B 900       4.517   0.253  18.993  1.00 22.03     0.185   C
BRANCH  17  18
HETATM   18 C12  KNI B 900       3.097   0.758  18.920  1.00 24.82     0.108   C
BRANCH  18  19
HETATM   19  S1  KNI B 900       2.332  -0.152  17.550  1.00 31.66    -0.171  SA
HETATM   20 C27  KNI B 900       1.471   1.291  16.832  1.00 28.64     0.089   C
ENDBRANCH  18  19
ENDBRANCH  17  18
BRANCH  17  21
HETATM   21 C13  KNI B 900       1.823  -0.529  20.636  1.00 19.38     0.241   C
HETATM   22  O6  KNI B 900       2.843  -1.084  21.013  1.00 19.61    -0.271  OA
HETATM   23  N3  KNI B 900       0.643  -0.686  21.234  1.00 17.23    -0.351   N
HETATM   24 HN3  KNI B 900      -0.173  -0.221  20.881  1.00 15.00     0.163  HD
BRANCH  23  25
HETATM   25 C14  KNI B 900       0.495  -1.517  22.433  1.00 18.12     0.126   C
BRANCH  25  26
HETATM   26 C15  KNI B 900       1.649  -2.526  22.506  1.00 17.64     0.233   C
BRANCH  26  27
HETATM   27 C17  KNI B 900       1.201  -3.833  23.154  1.00 19.01     0.252   C
HETATM   28  O4  KNI B 900       1.356  -4.003  24.358  1.00 17.77    -0.270  OA
HETATM   29  N4  KNI B 900       0.666  -4.730  22.301  1.00 20.71    -0.327   N
HETATM   30 C20  KNI B 900       0.482  -4.441  20.875  1.00 20.81     0.201   C
HETATM   31 C18  KNI B 900       0.378  -6.097  22.765  1.00 19.84     0.189   C
HETATM   32  S2  KNI B 900      -0.040  -6.007  20.118  1.00 25.22    -0.147  SA
HETATM   33 C19  KNI B 900      -0.388  -6.861  21.686  1.00 18.96     0.110   C
BRANCH  31  34
HETATM   34 C21  KNI B 900       1.688  -6.758  23.075  1.00 19.96     0.242   C
HETATM   35  O5  KNI B 900       2.062  -6.887  24.235  1.00 21.99    -0.271  OA
HETATM   36  N5  KNI B 900       2.376  -7.175  22.019  1.00 16.49    -0.351   N
HETATM   37 HN5  KNI B 900       2.016  -6.961  21.107  1.00 15.00     0.163  HD
BRANCH  36  38
HETATM   38 C22  KNI B 900       3.575  -8.016  22.134  1.00 17.46     0.022   C
HETATM   39 C23  KNI B 900       4.783  -7.384  21.435  1.00 17.61     0.037   C
HETATM   40 C24  KNI B 900       3.308  -9.417  21.580  1.00 18.08     0.037   C
HETATM   41 C25  KNI B 900       3.915  -8.102  23.617  1.00 17.58     0.037   C
ENDBRANCH  36  38
ENDBRANCH  31  34
ENDBRANCH  26  27
BRANCH  26  42
HETATM   42  O2  KNI B 900       2.876  -2.095  18.624  1.00 17.78    -0.384  OA
HETATM   43 HO2  KNI B 900       2.292  -1.387  18.937  1.00 15.00     0.210  HD
ENDBRANCH  26  42
ENDBRANCH  25  26
BRANCH  25  44
HETATM   44 C16  KNI B 900       3.531   0.514  17.918  1.00 17.12     0.066   C
BRANCH  44  45
HETATM   45 C28  KNI B 900       4.616   0.422  16.864  1.00 19.72    -0.056   A
HETATM   46 C29  KNI B 900       4.717   1.364  15.859  1.00 20.68     0.007   A
HETATM   47 C30  KNI B 900       5.714   1.259  14.905  1.00 21.38     0.001   A
HETATM   48 C31  KNI B 900       6.614   0.219  14.930  1.00 20.30     0.000   A
HETATM   49 C32  KNI B 900       6.513  -0.712  15.927  1.00 20.29     0.001   A
HETATM   50 C33  KNI B 900       5.527  -0.615  16.887  1.00 20.35     0.007   A
ENDBRANCH  44  45
ENDBRANCH  25  44
ENDBRANCH  23  25
ENDBRANCH  17  21
ENDBRANCH  15  17
ENDBRANCH  12  13
ENDBRANCH  11  12
ENDBRANCH   6  11
TORSDOF 15