ROOT
HETATM    1  P1  NAD X   1       2.835  -3.314  -7.053  1.00 20.00     0.418 P 
HETATM    2  O1  NAD X   1       2.394  -4.590  -7.746  1.00 20.00    -0.624 OA
HETATM    3  O2  NAD X   1       4.040  -2.606  -7.590  1.00 20.00    -0.624 OA
ENDROOT
BRANCH   1   4
HETATM    4  O3  NAD X   1       3.264  -3.663  -5.495  1.00 20.00    -0.268 OA
BRANCH   4   5
HETATM    5  C1  NAD X   1       2.616  -4.548  -4.543  1.00 20.00     0.187 C 
BRANCH   5   6
HETATM    6  C2  NAD X   1       3.644  -5.229  -3.682  1.00 20.00     0.181 C 
HETATM    7  C3  NAD X   1       4.897  -5.662  -4.477  1.00 20.00     0.216 C 
HETATM    8  C4  NAD X   1       5.151  -7.118  -4.050  1.00 20.00     0.234 C 
HETATM    9  O5  NAD X   1       5.968  -4.776  -4.066  1.00 20.00    -0.218 OA
HETATM   10  C5  NAD X   1       4.346  -7.236  -2.730  1.00 20.00     0.241 C 
HETATM   11  O6  NAD X   1       6.537  -7.324  -3.922  1.00 20.00    -0.216 OA
HETATM   12  O4  NAD X   1       3.179  -6.446  -2.989  1.00 20.00    -0.331 OA
BRANCH  10  13
HETATM   13  N1  NAD X   1       3.975  -8.621  -2.330  1.00 20.00    -0.270 N 
HETATM   14  C6  NAD X   1       3.234  -9.733  -2.683  1.00 20.00     0.182 A 
HETATM   15  N2  NAD X   1       3.279 -10.747  -1.828  1.00 20.00    -0.219 NA
HETATM   16  C7  NAD X   1       4.080 -10.260  -0.798  1.00 20.00     0.155 A 
HETATM   17  C8  NAD X   1       4.539 -10.843   0.364  1.00 20.00     0.206 A 
HETATM   18  C10 NAD X   1       4.518  -8.975  -1.097  1.00 20.00     0.170 A 
HETATM   19  N3  NAD X   1       4.279 -12.090   0.726  1.00 20.00    -0.125 N 
HETATM   20  N4  NAD X   1       5.354 -10.127   1.122  1.00 20.00    -0.202 NA
HETATM   21  C9  NAD X   1       5.649  -8.879   0.768  1.00 20.00     0.202 A 
HETATM   22  N5  NAD X   1       5.339  -8.231  -0.335  1.00 20.00    -0.205 NA
ENDBRANCH  10  13
ENDBRANCH   5   6
ENDBRANCH   4   5
ENDBRANCH   1   4
BRANCH   1  23
HETATM   23  O7  NAD X   1       1.460  -2.666  -7.009  1.00 20.00    -0.180 OA
BRANCH  23  24
HETATM   24  P2  NAD X   1       0.922  -1.349  -6.544  1.00 20.00     0.418 P 
HETATM   25  O8  NAD X   1      -0.358  -1.175  -7.301  1.00 20.00    -0.624 OA
HETATM   26  O9  NAD X   1       1.889  -0.235  -6.341  1.00 20.00    -0.624 OA
BRANCH  24  27
HETATM   27  O10 NAD X   1       0.219  -1.828  -5.180  1.00 20.00    -0.268 OA
BRANCH  27  28
HETATM   28  C11 NAD X   1       0.567  -1.345  -3.886  1.00 20.00     0.187 C 
BRANCH  28  29
HETATM   29  C12 NAD X   1      -0.725  -1.209  -3.069  1.00 20.00     0.181 C 
HETATM   30  O11 NAD X   1      -1.520  -0.092  -3.569  1.00 20.00    -0.331 OA
HETATM   31  C15 NAD X   1      -2.854  -0.594  -3.598  1.00 20.00     0.239 C 
HETATM   32  C14 NAD X   1      -2.711  -2.032  -4.030  1.00 20.00     0.234 C 
HETATM   33  C13 NAD X   1      -1.562  -2.483  -3.194  1.00 20.00     0.216 C 
HETATM   34  O13 NAD X   1      -3.868  -2.713  -3.642  1.00 20.00    -0.216 OA
HETATM   35  O12 NAD X   1      -2.008  -2.785  -1.923  1.00 20.00    -0.218 OA
BRANCH  31  36
HETATM   36  N6  NAD X   1      -3.700   0.215  -4.456  1.00 20.00    -0.301 N 
HETATM   37  C16 NAD X   1      -3.421   0.166  -5.815  1.00 20.00     0.082 C 
HETATM   38  C17 NAD X   1      -4.086   0.746  -6.856  1.00 20.00     0.063 C 
HETATM   39  C19 NAD X   1      -5.026   1.586  -6.333  1.00 20.00     0.007 C 
HETATM   40  C20 NAD X   1      -5.323   1.824  -4.963  1.00 20.00     0.019 C 
HETATM   41  C21 NAD X   1      -4.629   1.066  -3.976  1.00 20.00     0.078 C 
BRANCH  38  42
HETATM   42  C18 NAD X   1      -3.759   0.703  -8.292  1.00 20.00     0.234 C 
HETATM   43  N7  NAD X   1      -2.586   0.328  -8.777  1.00 20.00    -0.118 N 
HETATM   44  O14 NAD X   1      -4.570   1.164  -9.253  1.00 20.00    -0.167 OA
ENDBRANCH  38  42
ENDBRANCH  31  36
ENDBRANCH  28  29
ENDBRANCH  27  28
ENDBRANCH  24  27
ENDBRANCH  23  24
ENDBRANCH   1  23
TORSDOF 11