ROOT
HETATM    1  P1  NAD X   1      -1.305  -4.766  -4.728  1.00 20.00     0.418   P
HETATM    2  O1  NAD X   1      -1.464  -3.580  -5.661  1.00 20.00    -0.624  OA
HETATM    3  O2  NAD X   1      -2.022  -4.725  -3.414  1.00 20.00    -0.624  OA
ENDROOT
BRANCH   1   4
HETATM    4  O3  NAD X   1       0.283  -4.903  -4.289  1.00 20.00    -0.268  OA
BRANCH   4   5
HETATM    5  C1  NAD X   1       1.317  -3.883  -4.263  1.00 20.00     0.187   C
BRANCH   5   6
HETATM    6  C2  NAD X   1       2.667  -4.504  -4.496  1.00 20.00     0.181   C
HETATM    7  C3  NAD X   1       2.592  -5.795  -5.343  1.00 20.00     0.216   C
HETATM    8  C4  NAD X   1       3.455  -6.816  -4.582  1.00 20.00     0.234   C
HETATM    9  O5  NAD X   1       3.151  -5.465  -6.639  1.00 20.00    -0.218  OA
HETATM   10  C5  NAD X   1       4.316  -5.918  -3.656  1.00 20.00     0.241   C
HETATM   11  O6  NAD X   1       4.182  -7.585  -5.510  1.00 20.00    -0.216  OA
HETATM   12  O4  NAD X   1       3.408  -4.877  -3.275  1.00 20.00    -0.331  OA
BRANCH  10  13
HETATM   13  N1  NAD X   1       4.883  -6.596  -2.458  1.00 20.00    -0.270   N
HETATM   14  C6  NAD X   1       5.757  -6.460  -1.396  1.00 20.00     0.182   A
HETATM   15  N2  NAD X   1       5.874  -7.522  -0.610  1.00 20.00    -0.219  NA
HETATM   16  C7  NAD X   1       5.044  -8.461  -1.216  1.00 20.00     0.155   A
HETATM   17  C8  NAD X   1       4.701  -9.749  -0.864  1.00 20.00     0.206   A
HETATM   18 C10  NAD X   1       4.428  -7.907  -2.333  1.00 20.00     0.170   A
HETATM   19  N3  NAD X   1       5.138 -10.367   0.223  1.00 20.00    -0.125   N
HETATM   20  N4  NAD X   1       3.819 -10.373  -1.627  1.00 20.00    -0.202  NA
HETATM   21  C9  NAD X   1       3.347  -9.766  -2.713  1.00 20.00     0.202   A
HETATM   22  N5  NAD X   1       3.535  -8.529  -3.123  1.00 20.00    -0.205  NA
ENDBRANCH  10  13
ENDBRANCH   5   6
ENDBRANCH   4   5
ENDBRANCH   1   4
BRANCH   1  23
HETATM   23  O7  NAD X   1      -1.580  -5.837  -5.773  1.00 20.00    -0.180  OA
BRANCH  23  24
HETATM   24  P2  NAD X   1      -1.792  -5.843  -7.255  1.00 20.00     0.418   P
HETATM   25  O8  NAD X   1      -2.631  -7.056  -7.511  1.00 20.00    -0.624  OA
HETATM   26  O9  NAD X   1      -0.642  -5.467  -8.123  1.00 20.00    -0.624  OA
BRANCH  24  27
HETATM   27 O10  NAD X   1      -3.013  -4.801  -7.341  1.00 20.00    -0.268  OA
BRANCH  27  28
HETATM   28 C11  NAD X   1      -3.692  -4.460  -8.547  1.00 20.00     0.187   C
BRANCH  28  29
HETATM   29 C12  NAD X   1      -4.855  -3.526  -8.186  1.00 20.00     0.181   C
HETATM   30 O11  NAD X   1      -4.522  -2.744  -6.999  1.00 20.00    -0.331  OA
HETATM   31 C15  NAD X   1      -4.962  -1.425  -7.311  1.00 20.00     0.239   C
HETATM   32 C14  NAD X   1      -4.651  -1.255  -8.777  1.00 20.00     0.234   C
HETATM   33 C13  NAD X   1      -5.125  -2.554  -9.335  1.00 20.00     0.216   C
HETATM   34 O13  NAD X   1      -5.448  -0.217  -9.267  1.00 20.00    -0.216  OA
HETATM   35 O12  NAD X   1      -6.495  -2.513  -9.499  1.00 20.00    -0.218  OA
BRANCH  31  36
HETATM   36  N6  NAD X   1      -4.337  -0.444  -6.442  1.00 20.00    -0.301   N
HETATM   37 C16  NAD X   1      -3.181  -0.851  -5.789  1.00 20.00     0.082   C
HETATM   38 C17  NAD X   1      -2.343  -0.134  -4.986  1.00 20.00     0.063   C
HETATM   39 C19  NAD X   1      -2.929   1.076  -4.748  1.00 20.00     0.007   C
HETATM   40 C20  NAD X   1      -4.168   1.563  -5.250  1.00 20.00     0.019   C
HETATM   41 C21  NAD X   1      -4.892   0.754  -6.173  1.00 20.00     0.078   C
BRANCH  38  42
HETATM   42 C18  NAD X   1      -1.133  -0.591  -4.281  1.00 20.00     0.234   C
HETATM   43  N7  NAD X   1      -0.433   0.159  -3.444  1.00 20.00    -0.118   N
HETATM   44 O14  NAD X   1      -0.538  -1.767  -4.511  1.00 20.00    -0.167  OA
ENDBRANCH  38  42
ENDBRANCH  31  36
ENDBRANCH  28  29
ENDBRANCH  27  28
ENDBRANCH  24  27
ENDBRANCH  23  24
ENDBRANCH   1  23
TORSDOF 11