ROOT
HETATM    1  P1  NAD X   1     -54.702  51.755   6.999  1.00 20.00     0.418   P
HETATM    2  O1  NAD X   1     -54.583  52.032   5.512  1.00 20.00    -0.624  OA
HETATM    3  O2  NAD X   1     -55.736  50.769   7.448  1.00 20.00    -0.624  OA
ENDROOT
BRANCH   1   4
HETATM    4  O3  NAD X   1     -55.141  53.145   7.778  1.00 20.00    -0.268  OA
BRANCH   4   5
HETATM    5  C1  NAD X   1     -56.275  54.018   7.524  1.00 20.00     0.187   C
BRANCH   5   6
HETATM    6  C2  NAD X   1     -56.880  53.708   6.182  1.00 20.00     0.181   C
HETATM    7  C3  NAD X   1     -56.174  54.451   5.023  1.00 20.00     0.216   C
HETATM    8  C4  NAD X   1     -57.317  55.057   4.191  1.00 20.00     0.234   C
HETATM    9  O5  NAD X   1     -55.433  53.446   4.287  1.00 20.00    -0.218  OA
HETATM   10  C5  NAD X   1     -58.550  54.235   4.646  1.00 20.00     0.241   C
HETATM   11  O6  NAD X   1     -56.998  54.946   2.825  1.00 20.00    -0.216  OA
HETATM   12  O4  NAD X   1     -58.312  54.038   6.046  1.00 20.00    -0.331  OA
BRANCH  10  13
HETATM   13  N1  NAD X   1     -59.870  54.884   4.416  1.00 20.00    -0.270   N
HETATM   14  C6  NAD X   1     -60.639  55.999   4.691  1.00 20.00     0.182   A
HETATM   15  N2  NAD X   1     -61.865  55.988   4.186  1.00 20.00    -0.219  NA
HETATM   16  C7  NAD X   1     -61.942  54.748   3.557  1.00 20.00     0.155   A
HETATM   17  C8  NAD X   1     -62.939  54.152   2.816  1.00 20.00     0.206   A
HETATM   18 C10  NAD X   1     -60.732  54.073   3.680  1.00 20.00     0.170   A
HETATM   19  N3  NAD X   1     -64.103  54.720   2.539  1.00 20.00    -0.125   N
HETATM   20  N4  NAD X   1     -62.677  52.969   2.285  1.00 20.00    -0.202  NA
HETATM   21  C9  NAD X   1     -61.506  52.387   2.530  1.00 20.00     0.202   A
HETATM   22  N5  NAD X   1     -60.452  52.868   3.155  1.00 20.00    -0.205  NA
ENDBRANCH  10  13
ENDBRANCH   5   6
ENDBRANCH   4   5
ENDBRANCH   1   4
BRANCH   1  23
HETATM   23  O7  NAD X   1     -53.216  51.548   7.247  1.00 20.00    -0.180  OA
BRANCH  23  24
HETATM   24  P2  NAD X   1     -52.399  50.598   8.067  1.00 20.00     0.418   P
HETATM   25  O8  NAD X   1     -52.687  50.977   9.486  1.00 20.00    -0.624  OA
HETATM   26  O9  NAD X   1     -51.027  50.270   7.589  1.00 20.00    -0.624  OA
BRANCH  24  27
HETATM   27 O10  NAD X   1     -53.389  49.332   8.051  1.00 20.00    -0.268  OA
BRANCH  27  28
HETATM   28 C11  NAD X   1     -54.495  49.190   7.164  1.00 20.00     0.187   C
BRANCH  28  29
HETATM   29 C12  NAD X   1     -54.999  47.744   7.265  1.00 20.00     0.181   C
HETATM   30 O11  NAD X   1     -56.353  47.720   7.808  1.00 20.00    -0.331  OA
HETATM   31 C15  NAD X   1     -57.043  46.775   6.994  1.00 20.00     0.239   C
HETATM   32 C14  NAD X   1     -56.494  46.994   5.607  1.00 20.00     0.234   C
HETATM   33 C13  NAD X   1     -55.031  47.100   5.878  1.00 20.00     0.216   C
HETATM   34 O13  NAD X   1     -56.748  45.841   4.859  1.00 20.00    -0.216  OA
HETATM   35 O12  NAD X   1     -54.496  45.836   6.021  1.00 20.00    -0.218  OA
BRANCH  31  36
HETATM   36  N6  NAD X   1     -58.482  46.937   7.108  1.00 20.00    -0.301   N
HETATM   37 C16  NAD X   1     -59.077  46.365   8.224  1.00 20.00     0.082   C
HETATM   38 C17  NAD X   1     -60.377  46.421   8.636  1.00 20.00     0.063   C
HETATM   39 C19  NAD X   1     -61.104  47.007   7.640  1.00 20.00     0.007   C
HETATM   40 C20  NAD X   1     -60.636  47.515   6.397  1.00 20.00     0.019   C
HETATM   41 C21  NAD X   1     -59.234  47.497   6.140  1.00 20.00     0.078   C
BRANCH  38  42
HETATM   42 C18  NAD X   1     -60.996  45.786   9.812  1.00 20.00     0.234   C
HETATM   43  N7  NAD X   1     -60.812  44.521  10.157  1.00 20.00    -0.118   N
HETATM   44 O14  NAD X   1     -61.913  46.383  10.583  1.00 20.00    -0.167  OA
ENDBRANCH  38  42
ENDBRANCH  31  36
ENDBRANCH  28  29
ENDBRANCH  27  28
ENDBRANCH  24  27
ENDBRANCH  23  24
ENDBRANCH   1  23
TORSDOF 11