ROOT
HETATM    1  P1  NAD X   1       6.442  -1.578  -4.369  1.00 20.00     0.418   P
HETATM    2  O1  NAD X   1       6.001  -2.854  -5.062  1.00 20.00    -0.624  OA
HETATM    3  O2  NAD X   1       7.647  -0.870  -4.906  1.00 20.00    -0.624  OA
ENDROOT
BRANCH   1   4
HETATM    4  O3  NAD X   1       6.871  -1.927  -2.811  1.00 20.00    -0.268  OA
BRANCH   4   5
HETATM    5  C1  NAD X   1       6.223  -2.812  -1.859  1.00 20.00     0.187   C
BRANCH   5   6
HETATM    6  C2  NAD X   1       7.251  -3.493  -0.998  1.00 20.00     0.181   C
HETATM    7  C3  NAD X   1       8.504  -3.926  -1.793  1.00 20.00     0.216   C
HETATM    8  C4  NAD X   1       8.758  -5.382  -1.366  1.00 20.00     0.234   C
HETATM    9  O5  NAD X   1       9.575  -3.040  -1.382  1.00 20.00    -0.218  OA
HETATM   10  C5  NAD X   1       7.953  -5.500  -0.046  1.00 20.00     0.241   C
HETATM   11  O6  NAD X   1      10.144  -5.588  -1.238  1.00 20.00    -0.216  OA
HETATM   12  O4  NAD X   1       6.786  -4.710  -0.305  1.00 20.00    -0.331  OA
BRANCH  10  13
HETATM   13  N1  NAD X   1       7.582  -6.885   0.354  1.00 20.00    -0.270   N
HETATM   14  C6  NAD X   1       6.841  -7.997   0.001  1.00 20.00     0.182   A
HETATM   15  N2  NAD X   1       6.886  -9.011   0.856  1.00 20.00    -0.219  NA
HETATM   16  C7  NAD X   1       7.687  -8.524   1.886  1.00 20.00     0.155   A
HETATM   17  C8  NAD X   1       8.146  -9.107   3.048  1.00 20.00     0.206   A
HETATM   18 C10  NAD X   1       8.125  -7.239   1.587  1.00 20.00     0.170   A
HETATM   19  N3  NAD X   1       7.886 -10.354   3.410  1.00 20.00    -0.125   N
HETATM   20  N4  NAD X   1       8.961  -8.391   3.806  1.00 20.00    -0.202  NA
HETATM   21  C9  NAD X   1       9.256  -7.143   3.452  1.00 20.00     0.202   A
HETATM   22  N5  NAD X   1       8.946  -6.495   2.349  1.00 20.00    -0.205  NA
ENDBRANCH  10  13
ENDBRANCH   5   6
ENDBRANCH   4   5
ENDBRANCH   1   4
BRANCH   1  23
HETATM   23  O7  NAD X   1       5.067  -0.930  -4.325  1.00 20.00    -0.180  OA
BRANCH  23  24
HETATM   24  P2  NAD X   1       4.529   0.387  -3.860  1.00 20.00     0.418   P
HETATM   25  O8  NAD X   1       3.249   0.561  -4.617  1.00 20.00    -0.624  OA
HETATM   26  O9  NAD X   1       5.496   1.501  -3.657  1.00 20.00    -0.624  OA
BRANCH  24  27
HETATM   27 O10  NAD X   1       3.826  -0.092  -2.496  1.00 20.00    -0.268  OA
BRANCH  27  28
HETATM   28 C11  NAD X   1       4.174   0.391  -1.202  1.00 20.00     0.187   C
BRANCH  28  29
HETATM   29 C12  NAD X   1       2.882   0.527  -0.385  1.00 20.00     0.181   C
HETATM   30 O11  NAD X   1       2.087   1.644  -0.885  1.00 20.00    -0.331  OA
HETATM   31 C15  NAD X   1       0.753   1.142  -0.914  1.00 20.00     0.239   C
HETATM   32 C14  NAD X   1       0.896  -0.296  -1.346  1.00 20.00     0.234   C
HETATM   33 C13  NAD X   1       2.045  -0.747  -0.510  1.00 20.00     0.216   C
HETATM   34 O13  NAD X   1      -0.261  -0.977  -0.958  1.00 20.00    -0.216  OA
HETATM   35 O12  NAD X   1       1.599  -1.049   0.761  1.00 20.00    -0.218  OA
BRANCH  31  36
HETATM   36  N6  NAD X   1      -0.093   1.951  -1.772  1.00 20.00    -0.301   N
HETATM   37 C16  NAD X   1       0.186   1.902  -3.131  1.00 20.00     0.082   C
HETATM   38 C17  NAD X   1      -0.479   2.482  -4.172  1.00 20.00     0.063   C
HETATM   39 C19  NAD X   1      -1.419   3.322  -3.649  1.00 20.00     0.007   C
HETATM   40 C20  NAD X   1      -1.716   3.560  -2.279  1.00 20.00     0.019   C
HETATM   41 C21  NAD X   1      -1.022   2.802  -1.292  1.00 20.00     0.078   C
BRANCH  38  42
HETATM   42 C18  NAD X   1      -0.152   2.439  -5.608  1.00 20.00     0.234   C
HETATM   43  N7  NAD X   1       1.021   2.064  -6.093  1.00 20.00    -0.118   N
HETATM   44 O14  NAD X   1      -0.963   2.900  -6.569  1.00 20.00    -0.167  OA
ENDBRANCH  38  42
ENDBRANCH  31  36
ENDBRANCH  28  29
ENDBRANCH  27  28
ENDBRANCH  24  27
ENDBRANCH  23  24
ENDBRANCH   1  23
TORSDOF 11