ROOT
HETATM    1  P   LIG L   2      -3.280  -3.017  -5.951  1.00  1.00     0.139 P 
HETATM    2  O   LIG L   2      -4.414  -3.372  -5.007  1.00  1.00     0.000 OA
HETATM    3  O   LIG L   2      -3.600  -2.169  -7.142  1.00  1.00     0.000 OA
HETATM    4  O   LIG L   2      -2.680  -4.403  -6.623  1.00  1.00    -0.322 OA
HETATM    5  C   LIG L   2      -1.668  -4.557  -7.653  1.00  1.00     0.178 C 
HETATM    6  C   LIG L   2      -0.343  -4.040  -7.163  1.00  1.00     0.147 C 
HETATM    7  C   LIG L   2      -0.324  -2.502  -7.002  1.00  1.00     0.037 A 
HETATM    8  C   LIG L   2       0.977  -2.050  -7.688  1.00  1.00     0.055 A 
HETATM    9  O   LIG L   2      -0.312  -2.241  -5.577  1.00  1.00     0.000 OA
HETATM   10  C   LIG L   2       1.806  -3.359  -7.753  1.00  1.00     0.207 C 
HETATM   11  O   LIG L   2       1.557  -1.014  -6.933  1.00  1.00     0.000 OA
HETATM   12  O   LIG L   2       0.815  -4.359  -8.021  1.00  1.00    -0.336 OA
HETATM   13  O   LIG L   2      -2.301  -2.576  -4.874  1.00  1.00    -0.240 OA
HETATM   14  P   LIG L   2      -1.841  -3.136  -3.564  1.00  1.00     0.414 P 
HETATM   15  O   LIG L   2      -1.080  -4.374  -3.928  1.00  1.00    -0.624 OA
HETATM   16  O   LIG L   2      -2.788  -3.087  -2.416  1.00  1.00    -0.624 OA
HETATM   17  O   LIG L   2      -0.535  -2.224  -3.342  1.00  1.00    -0.271 OA
HETATM   18  C   LIG L   2       0.691  -2.394  -4.049  1.00  1.00     0.155 C 
HETATM   19  C   LIG L   2       0.356  -2.617  -5.530  1.00  1.00     0.035 A 
HETATM   20  O   LIG L   2      -1.034  -3.038  -5.672  1.00  1.00     0.000 OA
HETATM   21  C   LIG L   2      -1.519  -2.281  -6.779  1.00  1.00     0.036 C 
HETATM   22  C   LIG L   2      -0.862  -0.932  -6.636  1.00  1.00     0.152 C 
HETATM   23  C   LIG L   2       0.542  -1.316  -6.312  1.00  1.00     0.037 A 
HETATM   24  O   LIG L   2      -0.899  -0.303  -7.883  1.00  1.00    -0.224 OA
HETATM   25  O   LIG L   2       1.208  -1.651  -7.475  1.00  1.00     0.000 OA
HETATM   26  N   LIG L   2      -2.971  -2.249  -6.795  1.00  1.00     0.000 N 
HETATM   27  C   LIG L   2      -3.553  -1.150  -7.414  1.00  1.00     0.035 A 
HETATM   28  C   LIG L   2      -4.870  -0.889  -7.652  1.00  1.00     0.020 C 
HETATM   29  C   LIG L   2      -5.607  -1.833  -6.996  1.00  1.00    -0.018 C 
HETATM   30  C   LIG L   2      -5.136  -2.930  -6.223  1.00  1.00     0.093 A 
HETATM   31  C   LIG L   2      -3.731  -3.155  -6.148  1.00  1.00     0.084 A 
ENDROOT
BRANCH  28  32
HETATM   32  C   LIG L   2      -5.471   0.296  -8.289  1.00  1.00     0.228 C 
HETATM   33  O   LIG L   2      -4.786   1.161  -9.046  1.00  1.00    -0.168 OA
HETATM   34  N   LIG L   2      -6.768   0.561  -8.291  1.00  1.00    -0.118 N 
ENDBRANCH  28  32
BRANCH  10  35
HETATM   35  N   LIG L   2       2.880  -3.383  -8.782  1.00  1.00    -0.272 N 
HETATM   36  C   LIG L   2       3.769  -2.604  -9.500  1.00  1.00     0.182 A 
HETATM   37  N   LIG L   2       4.519  -3.253 -10.380  1.00  1.00    -0.219 NA
HETATM   38  C   LIG L   2       4.069  -4.567 -10.276  1.00  1.00     0.155 A 
HETATM   39  C   LIG L   2       4.474  -5.730 -10.895  1.00  1.00     0.206 A 
HETATM   40  C   LIG L   2       3.083  -4.660  -9.300  1.00  1.00     0.169 A 
HETATM   41  N   LIG L   2       3.881  -6.853 -10.526  1.00  1.00    -0.202 NA
HETATM   42  N   LIG L   2       5.464  -5.802 -11.772  1.00  1.00    -0.125 N 
HETATM   43  C   LIG L   2       2.898  -6.811  -9.630  1.00  1.00     0.202 A 
HETATM   44  N   LIG L   2       2.464  -5.791  -8.918  1.00  1.00    -0.205 NA
ENDBRANCH  10  35
TORSDOF 4
