ROOT
HETATM    1  P1  NAD X   1      -0.919  34.516  11.255  1.00 20.00     0.418   P
HETATM    2  O1  NAD X   1      -1.360  33.240  10.562  1.00 20.00    -0.624  OA
HETATM    3  O2  NAD X   1       0.286  35.224  10.718  1.00 20.00    -0.624  OA
ENDROOT
BRANCH   1   4
HETATM    4  O3  NAD X   1      -0.490  34.167  12.813  1.00 20.00    -0.268  OA
BRANCH   4   5
HETATM    5  C1  NAD X   1      -1.138  33.282  13.765  1.00 20.00     0.187   C
BRANCH   5   6
HETATM    6  C2  NAD X   1      -0.110  32.601  14.626  1.00 20.00     0.181   C
HETATM    7  C3  NAD X   1       1.143  32.168  13.831  1.00 20.00     0.216   C
HETATM    8  C4  NAD X   1       1.397  30.712  14.258  1.00 20.00     0.234   C
HETATM    9  O5  NAD X   1       2.214  33.054  14.242  1.00 20.00    -0.218  OA
HETATM   10  C5  NAD X   1       0.592  30.594  15.578  1.00 20.00     0.241   C
HETATM   11  O6  NAD X   1       2.783  30.506  14.386  1.00 20.00    -0.216  OA
HETATM   12  O4  NAD X   1      -0.575  31.384  15.319  1.00 20.00    -0.331  OA
BRANCH  10  13
HETATM   13  N1  NAD X   1       0.221  29.209  15.978  1.00 20.00    -0.270   N
HETATM   14  C6  NAD X   1      -0.520  28.097  15.625  1.00 20.00     0.182   A
HETATM   15  N2  NAD X   1      -0.475  27.083  16.480  1.00 20.00    -0.219  NA
HETATM   16  C7  NAD X   1       0.326  27.570  17.510  1.00 20.00     0.155   A
HETATM   17  C8  NAD X   1       0.785  26.987  18.672  1.00 20.00     0.206   A
HETATM   18 C10  NAD X   1       0.764  28.855  17.211  1.00 20.00     0.170   A
HETATM   19  N3  NAD X   1       0.525  25.740  19.034  1.00 20.00    -0.125   N
HETATM   20  N4  NAD X   1       1.600  27.703  19.430  1.00 20.00    -0.202  NA
HETATM   21  C9  NAD X   1       1.895  28.951  19.076  1.00 20.00     0.202   A
HETATM   22  N5  NAD X   1       1.585  29.599  17.973  1.00 20.00    -0.205  NA
ENDBRANCH  10  13
ENDBRANCH   5   6
ENDBRANCH   4   5
ENDBRANCH   1   4
BRANCH   1  23
HETATM   23  O7  NAD X   1      -2.294  35.164  11.299  1.00 20.00    -0.180  OA
BRANCH  23  24
HETATM   24  P2  NAD X   1      -2.832  36.481  11.764  1.00 20.00     0.418   P
HETATM   25  O8  NAD X   1      -4.112  36.655  11.007  1.00 20.00    -0.624  OA
HETATM   26  O9  NAD X   1      -1.865  37.595  11.967  1.00 20.00    -0.624  OA
BRANCH  24  27
HETATM   27 O10  NAD X   1      -3.535  36.002  13.128  1.00 20.00    -0.268  OA
BRANCH  27  28
HETATM   28 C11  NAD X   1      -3.187  36.485  14.422  1.00 20.00     0.187   C
BRANCH  28  29
HETATM   29 C12  NAD X   1      -4.479  36.621  15.239  1.00 20.00     0.181   C
HETATM   30 O11  NAD X   1      -5.274  37.738  14.739  1.00 20.00    -0.331  OA
HETATM   31 C15  NAD X   1      -6.608  37.236  14.710  1.00 20.00     0.239   C
HETATM   32 C14  NAD X   1      -6.465  35.798  14.278  1.00 20.00     0.234   C
HETATM   33 C13  NAD X   1      -5.316  35.347  15.114  1.00 20.00     0.216   C
HETATM   34 O13  NAD X   1      -7.622  35.117  14.666  1.00 20.00    -0.216  OA
HETATM   35 O12  NAD X   1      -5.762  35.045  16.385  1.00 20.00    -0.218  OA
BRANCH  31  36
HETATM   36  N6  NAD X   1      -7.454  38.045  13.852  1.00 20.00    -0.301   N
HETATM   37 C16  NAD X   1      -7.175  37.996  12.493  1.00 20.00     0.082   C
HETATM   38 C17  NAD X   1      -7.840  38.576  11.452  1.00 20.00     0.063   C
HETATM   39 C19  NAD X   1      -8.780  39.416  11.975  1.00 20.00     0.007   C
HETATM   40 C20  NAD X   1      -9.077  39.654  13.345  1.00 20.00     0.019   C
HETATM   41 C21  NAD X   1      -8.383  38.896  14.332  1.00 20.00     0.078   C
BRANCH  38  42
HETATM   42 C18  NAD X   1      -7.513  38.533  10.016  1.00 20.00     0.234   C
HETATM   43  N7  NAD X   1      -6.340  38.158   9.531  1.00 20.00    -0.118   N
HETATM   44 O14  NAD X   1      -8.324  38.994   9.055  1.00 20.00    -0.167  OA
ENDBRANCH  38  42
ENDBRANCH  31  36
ENDBRANCH  28  29
ENDBRANCH  27  28
ENDBRANCH  24  27
ENDBRANCH  23  24
ENDBRANCH   1  23
TORSDOF 11