ROOT
HETATM    1  P1  NAD X   1       0.434  -7.812  -7.670  1.00 20.00     0.418   P
HETATM    2  O1  NAD X   1       0.094  -9.253  -8.001  1.00 20.00    -0.624  OA
HETATM    3  O2  NAD X   1       1.800  -7.315  -8.030  1.00 20.00    -0.624  OA
ENDROOT
BRANCH   1   4
HETATM    4  O3  NAD X   1       0.376  -7.603  -6.031  1.00 20.00    -0.268  OA
BRANCH   4   5
HETATM    5  C1  NAD X   1       1.307  -8.063  -5.015  1.00 20.00     0.187   C
BRANCH   5   6
HETATM    6  C2  NAD X   1       2.375  -8.920  -5.638  1.00 20.00     0.181   C
HETATM    7  C3  NAD X   1       1.810 -10.215  -6.268  1.00 20.00     0.216   C
HETATM    8  C4  NAD X   1       2.728 -11.337  -5.752  1.00 20.00     0.234   C
HETATM    9  O5  NAD X   1       1.906 -10.045  -7.704  1.00 20.00    -0.218  OA
HETATM   10  C5  NAD X   1       3.987 -10.563  -5.281  1.00 20.00     0.241   C
HETATM   11  O6  NAD X   1       2.949 -12.261  -6.790  1.00 20.00    -0.216  OA
HETATM   12  O4  NAD X   1       3.442  -9.363  -4.719  1.00 20.00    -0.331  OA
BRANCH  10  13
HETATM   13  N1  NAD X   1       4.840 -11.277  -4.292  1.00 20.00    -0.270   N
HETATM   14  C6  NAD X   1       5.854 -12.205  -4.143  1.00 20.00     0.182   A
HETATM   15  N2  NAD X   1       6.198 -12.481  -2.891  1.00 20.00    -0.219  NA
HETATM   16  C7  NAD X   1       5.316 -11.709  -2.139  1.00 20.00     0.155   A
HETATM   17  C8  NAD X   1       5.187 -11.521  -0.780  1.00 20.00     0.206   A
HETATM   18 C10  NAD X   1       4.495 -10.964  -2.979  1.00 20.00     0.170   A
HETATM   19  N3  NAD X   1       5.963 -12.091   0.129  1.00 20.00    -0.125   N
HETATM   20  N4  NAD X   1       4.275 -10.654  -0.371  1.00 20.00    -0.202  NA
HETATM   21  C9  NAD X   1       3.497 -10.050  -1.266  1.00 20.00     0.202   A
HETATM   22  N5  NAD X   1       3.559 -10.085  -2.580  1.00 20.00    -0.205  NA
ENDBRANCH  10  13
ENDBRANCH   5   6
ENDBRANCH   4   5
ENDBRANCH   1   4
BRANCH   1  23
HETATM   23  O7  NAD X   1      -0.834  -7.205  -8.249  1.00 20.00    -0.180  OA
BRANCH  23  24
HETATM   24  P2  NAD X   1      -2.004  -7.729  -9.023  1.00 20.00     0.418   P
HETATM   25  O8  NAD X   1      -3.202  -7.290  -8.241  1.00 20.00    -0.624  OA
HETATM   26  O9  NAD X   1      -1.890  -9.089  -9.618  1.00 20.00    -0.624  OA
BRANCH  24  27
HETATM   27 O10  NAD X   1      -2.118  -6.567 -10.128  1.00 20.00    -0.268  OA
BRANCH  27  28
HETATM   28 C11  NAD X   1      -1.474  -6.601 -11.398  1.00 20.00     0.187   C
BRANCH  28  29
HETATM   29 C12  NAD X   1      -0.153  -7.365 -11.237  1.00 20.00     0.181   C
HETATM   30 O11  NAD X   1      -0.116  -8.503 -12.149  1.00 20.00    -0.331  OA
HETATM   31 C15  NAD X   1       1.201  -8.476 -12.694  1.00 20.00     0.239   C
HETATM   32 C14  NAD X   1       1.514  -7.011 -12.863  1.00 20.00     0.234   C
HETATM   33 C13  NAD X   1       1.027  -6.450 -11.571  1.00 20.00     0.216   C
HETATM   34 O13  NAD X   1       2.902  -6.875 -12.939  1.00 20.00    -0.216  OA
HETATM   35 O12  NAD X   1       1.976  -6.662 -10.590  1.00 20.00    -0.218  OA
BRANCH  31  36
HETATM   36  N6  NAD X   1       1.279  -9.257 -13.916  1.00 20.00    -0.301   N
HETATM   37 C16  NAD X   1       1.457 -10.625 -13.759  1.00 20.00     0.082   C
HETATM   38 C17  NAD X   1       1.485 -11.608 -14.705  1.00 20.00     0.063   C
HETATM   39 C19  NAD X   1       1.493 -11.005 -15.931  1.00 20.00     0.007   C
HETATM   40 C20  NAD X   1       1.446  -9.615 -16.223  1.00 20.00     0.019   C
HETATM   41 C21  NAD X   1       1.304  -8.697 -15.142  1.00 20.00     0.078   C
BRANCH  38  42
HETATM   42 C18  NAD X   1       1.699 -13.054 -14.522  1.00 20.00     0.234   C
HETATM   43  N7  NAD X   1       2.140 -13.603 -13.401  1.00 20.00    -0.118   N
HETATM   44 O14  NAD X   1       1.598 -13.951 -15.510  1.00 20.00    -0.167  OA
ENDBRANCH  38  42
ENDBRANCH  31  36
ENDBRANCH  28  29
ENDBRANCH  27  28
ENDBRANCH  24  27
ENDBRANCH  23  24
ENDBRANCH   1  23
TORSDOF 11