ROOT
HETATM    1  P1  NAD X   1       0.268  -2.200  -7.054  1.00 20.00     0.418   P
HETATM    2  O1  NAD X   1       1.647  -2.373  -7.662  1.00 20.00    -0.624  OA
HETATM    3  O2  NAD X   1      -0.616  -1.130  -7.616  1.00 20.00    -0.624  OA
ENDROOT
BRANCH   1   4
HETATM    4  O3  NAD X   1       0.426  -1.766  -5.467  1.00 20.00    -0.268  OA
BRANCH   4   5
HETATM    5  C1  NAD X   1       1.351  -2.270  -4.467  1.00 20.00     0.187   C
BRANCH   5   6
HETATM    6  C2  NAD X   1       1.768  -1.162  -3.539  1.00 20.00     0.181   C
HETATM    7  C3  NAD X   1       2.011   0.175  -4.275  1.00 20.00     0.216   C
HETATM    8  C4  NAD X   1       3.361   0.681  -3.740  1.00 20.00     0.234   C
HETATM    9  O5  NAD X   1       0.914   1.049  -3.907  1.00 20.00    -0.218  OA
HETATM   10  C5  NAD X   1       3.540  -0.132  -2.431  1.00 20.00     0.241   C
HETATM   11  O6  NAD X   1       3.295   2.076  -3.569  1.00 20.00    -0.216  OA
HETATM   12  O4  NAD X   1       3.002  -1.416  -2.770  1.00 20.00    -0.331  OA
BRANCH  10  13
HETATM   13  N1  NAD X   1       4.940  -0.253  -1.940  1.00 20.00    -0.270   N
HETATM   14  C6  NAD X   1       6.192  -0.762  -2.228  1.00 20.00     0.182   A
HETATM   15  N2  NAD X   1       7.121  -0.558  -1.301  1.00 20.00    -0.219  NA
HETATM   16  C7  NAD X   1       6.424   0.104  -0.293  1.00 20.00     0.155   A
HETATM   17  C8  NAD X   1       6.832   0.624   0.917  1.00 20.00     0.206   A
HETATM   18 C10  NAD X   1       5.103   0.305  -0.675  1.00 20.00     0.170   A
HETATM   19  N3  NAD X   1       8.079   0.588   1.362  1.00 20.00    -0.125   N
HETATM   20  N4  NAD X   1       5.927   1.266   1.638  1.00 20.00    -0.202  NA
HETATM   21  C9  NAD X   1       4.672   1.336   1.201  1.00 20.00     0.202   A
HETATM   22  N5  NAD X   1       4.169   0.948   0.049  1.00 20.00    -0.205  NA
ENDBRANCH  10  13
ENDBRANCH   5   6
ENDBRANCH   4   5
ENDBRANCH   1   4
BRANCH   1  23
HETATM   23  O7  NAD X   1      -0.112  -3.672  -7.084  1.00 20.00    -0.180  OA
BRANCH  23  24
HETATM   24  P2  NAD X   1      -1.333  -4.460  -6.726  1.00 20.00     0.418   P
HETATM   25  O8  NAD X   1      -1.213  -5.725  -7.519  1.00 20.00    -0.624  OA
HETATM   26  O9  NAD X   1      -2.620  -3.724  -6.584  1.00 20.00    -0.624  OA
BRANCH  24  27
HETATM   27 O10  NAD X   1      -0.823  -5.107  -5.346  1.00 20.00    -0.268  OA
BRANCH  27  28
HETATM   28 C11  NAD X   1      -1.448  -4.898  -4.083  1.00 20.00     0.187   C
BRANCH  28  29
HETATM   29 C12  NAD X   1      -1.393  -6.219  -3.304  1.00 20.00     0.181   C
HETATM   30 O11  NAD X   1      -2.306  -7.191  -3.899  1.00 20.00    -0.331  OA
HETATM   31 C15  NAD X   1      -1.562  -8.407  -3.919  1.00 20.00     0.239   C
HETATM   32 C14  NAD X   1      -0.150  -7.985  -4.243  1.00 20.00     0.234   C
HETATM   33 C13  NAD X   1       0.020  -6.801  -3.354  1.00 20.00     0.216   C
HETATM   34 O13  NAD X   1       0.708  -9.008  -3.831  1.00 20.00    -0.216  OA
HETATM   35 O12  NAD X   1       0.315  -7.225  -2.074  1.00 20.00    -0.218  OA
BRANCH  31  36
HETATM   36  N6  NAD X   1      -2.139  -9.359  -4.849  1.00 20.00    -0.301   N
HETATM   37 C16  NAD X   1      -2.052  -9.031  -6.195  1.00 20.00     0.082   C
HETATM   38 C17  NAD X   1      -2.427  -9.757  -7.289  1.00 20.00     0.063   C
HETATM   39 C19  NAD X   1      -3.109 -10.853  -6.846  1.00 20.00     0.007   C
HETATM   40 C20  NAD X   1      -3.377 -11.235  -5.503  1.00 20.00     0.019   C
HETATM   41 C21  NAD X   1      -2.831 -10.445  -4.451  1.00 20.00     0.078   C
BRANCH  38  42
HETATM   42 C18  NAD X   1      -2.350  -9.380  -8.711  1.00 20.00     0.234   C
HETATM   43  N7  NAD X   1      -2.170  -8.143  -9.144  1.00 20.00    -0.118   N
HETATM   44 O14  NAD X   1      -2.586 -10.230  -9.719  1.00 20.00    -0.167  OA
ENDBRANCH  38  42
ENDBRANCH  31  36
ENDBRANCH  28  29
ENDBRANCH  27  28
ENDBRANCH  24  27
ENDBRANCH  23  24
ENDBRANCH   1  23
TORSDOF 11