ROOT
HETATM    1  P1  NAD X   1       8.815   3.532 -12.725  1.00 20.00     0.418   P
HETATM    2  O1  NAD X   1       9.147   3.459 -14.204  1.00 20.00    -0.624  OA
HETATM    3  O2  NAD X   1       9.452   4.619 -11.917  1.00 20.00    -0.624  OA
ENDROOT
BRANCH   1   4
HETATM    4  O3  NAD X   1       9.340   2.151 -11.983  1.00 20.00    -0.268  OA
BRANCH   4   5
HETATM    5  C1  NAD X   1       9.261   0.776 -12.444  1.00 20.00     0.187   C
BRANCH   5   6
HETATM    6  C2  NAD X   1      10.480   0.010 -12.010  1.00 20.00     0.181   C
HETATM    7  C3  NAD X   1      11.780   0.838 -12.132  1.00 20.00     0.216   C
HETATM    8  C4  NAD X   1      12.776  -0.095 -12.843  1.00 20.00     0.234   C
HETATM    9  O5  NAD X   1      12.194   1.150 -10.778  1.00 20.00    -0.218  OA
HETATM   10  C5  NAD X   1      12.143  -1.496 -12.640  1.00 20.00     0.241   C
HETATM   11  O6  NAD X   1      14.050   0.071 -12.270  1.00 20.00    -0.216  OA
HETATM   12  O4  NAD X   1      10.738  -1.238 -12.755  1.00 20.00    -0.331  OA
BRANCH  10  13
HETATM   13  N1  NAD X   1      12.575  -2.539 -13.609  1.00 20.00    -0.270   N
HETATM   14  C6  NAD X   1      12.561  -2.912 -14.940  1.00 20.00     0.182   A
HETATM   15  N2  NAD X   1      13.135  -4.077 -15.215  1.00 20.00    -0.219  NA
HETATM   16  C7  NAD X   1      13.528  -4.542 -13.962  1.00 20.00     0.155   A
HETATM   17  C8  NAD X   1      14.211  -5.675 -13.575  1.00 20.00     0.206   A
HETATM   18 C10  NAD X   1      13.204  -3.611 -12.981  1.00 20.00     0.170   A
HETATM   19  N3  NAD X   1      14.663  -6.596 -14.412  1.00 20.00    -0.125   N
HETATM   20  N4  NAD X   1      14.496  -5.803 -12.289  1.00 20.00    -0.202  NA
HETATM   21  C9  NAD X   1      14.074  -4.878 -11.430  1.00 20.00     0.202   A
HETATM   22  N5  NAD X   1      13.479  -3.729 -11.670  1.00 20.00    -0.205  NA
ENDBRANCH  10  13
ENDBRANCH   5   6
ENDBRANCH   4   5
ENDBRANCH   1   4
BRANCH   1  23
HETATM   23  O7  NAD X   1       7.308   3.412 -12.887  1.00 20.00    -0.180  OA
BRANCH  23  24
HETATM   24  P2  NAD X   1       6.135   3.441 -11.958  1.00 20.00     0.418   P
HETATM   25  O8  NAD X   1       4.977   3.831 -12.823  1.00 20.00    -0.624  OA
HETATM   26  O9  NAD X   1       6.341   4.004 -10.595  1.00 20.00    -0.624  OA
BRANCH  24  27
HETATM   27 O10  NAD X   1       5.782   1.872 -11.944  1.00 20.00    -0.268  OA
BRANCH  27  28
HETATM   28 C11  NAD X   1       5.793   1.059 -10.775  1.00 20.00     0.187   C
BRANCH  28  29
HETATM   29 C12  NAD X   1       4.621   0.073 -10.874  1.00 20.00     0.181   C
HETATM   30 O11  NAD X   1       3.355   0.779 -10.700  1.00 20.00    -0.331  OA
HETATM   31 C15  NAD X   1       2.507   0.234 -11.708  1.00 20.00     0.239   C
HETATM   32 C14  NAD X   1       3.413   0.020 -12.895  1.00 20.00     0.234   C
HETATM   33 C13  NAD X   1       4.610  -0.593 -12.251  1.00 20.00     0.216   C
HETATM   34 O13  NAD X   1       2.804  -0.914 -13.736  1.00 20.00    -0.216  OA
HETATM   35 O12  NAD X   1       4.379  -1.936 -12.035  1.00 20.00    -0.218  OA
BRANCH  31  36
HETATM   36  N6  NAD X   1       1.371   1.101 -11.962  1.00 20.00    -0.301   N
HETATM   37 C16  NAD X   1       1.653   2.324 -12.555  1.00 20.00     0.082   C
HETATM   38 C17  NAD X   1       0.796   3.297 -12.980  1.00 20.00     0.063   C
HETATM   39 C19  NAD X   1      -0.457   2.963 -12.555  1.00 20.00     0.007   C
HETATM   40 C20  NAD X   1      -0.857   1.808 -11.830  1.00 20.00     0.019   C
HETATM   41 C21  NAD X   1       0.122   0.812 -11.546  1.00 20.00     0.078   C
BRANCH  38  42
HETATM   42 C18  NAD X   1       1.117   4.602 -13.585  1.00 20.00     0.234   C
HETATM   43  N7  NAD X   1       2.313   5.167 -13.545  1.00 20.00    -0.118   N
HETATM   44 O14  NAD X   1       0.200   5.416 -14.125  1.00 20.00    -0.167  OA
ENDBRANCH  38  42
ENDBRANCH  31  36
ENDBRANCH  28  29
ENDBRANCH  27  28
ENDBRANCH  24  27
ENDBRANCH  23  24
ENDBRANCH   1  23
TORSDOF 11