ROOT
HETATM    1  P1  NAD X   1       2.835  -3.314  -7.053  1.00 20.00     0.418   P
HETATM    2  O1  NAD X   1       2.394   -4.59  -7.746  1.00 20.00    -0.624  OA
HETATM    3  O2  NAD X   1        4.04  -2.606   -7.59  1.00 20.00    -0.624  OA
ENDROOT
BRANCH   1   4
HETATM    4  O3  NAD X   1       3.264  -3.663  -5.495  1.00 20.00    -0.268  OA
BRANCH   4   5
HETATM    5  C1  NAD X   1       4.491  -3.340  -4.789  1.00 20.00     0.187   C
BRANCH   5   6
HETATM    6  C2  NAD X   1       5.668  -3.430  -5.721  1.00 20.00     0.181   C
HETATM    7  C3  NAD X   1       6.501  -2.129  -5.759  1.00 20.00     0.216   C
HETATM    8  C4  NAD X   1       6.715  -1.842  -7.255  1.00 20.00     0.234   C
HETATM    9  O5  NAD X   1       7.745  -2.420  -5.074  1.00 20.00    -0.218  OA
HETATM   10  C5  NAD X   1       6.417  -3.212  -7.916  1.00 20.00     0.241   C
HETATM   11  O6  NAD X   1       8.023  -1.360  -7.448  1.00 20.00    -0.216  OA
HETATM   12  O4  NAD X   1       5.335  -3.725  -7.128  1.00 20.00    -0.331  OA
BRANCH  10  13
HETATM   13  N1  NAD X   1       6.049  -3.159  -9.357  1.00 20.00    -0.270   N
HETATM   14  C6  NAD X   1       6.496  -2.818 -10.620  1.00 20.00     0.182   A
HETATM   15  N2  NAD X   1       5.617  -2.979 -11.602  1.00 20.00    -0.219  NA
HETATM   16  C7  NAD X   1       4.476  -3.422 -10.938  1.00 20.00     0.155   A
HETATM   17  C8  NAD X   1       3.234  -3.804 -11.400  1.00 20.00     0.206   A
HETATM   18 C10  NAD X   1       4.729  -3.547  -9.577  1.00 20.00     0.170   A
HETATM   19  N3  NAD X   1       2.888  -3.827 -12.678  1.00 20.00    -0.125   N
HETATM   20  N4  NAD X   1       2.364  -4.248 -10.507  1.00 20.00    -0.202  NA
HETATM   21  C9  NAD X   1       2.696  -4.258  -9.219  1.00 20.00     0.202   A
HETATM   22  N5  NAD X   1       3.855  -3.989  -8.656  1.00 20.00    -0.205  NA
ENDBRANCH  10  13
ENDBRANCH   5   6
ENDBRANCH   4   5
ENDBRANCH   1   4
BRANCH   1  23
HETATM   23  O7  NAD X   1       1.460  -2.666  -7.009  1.00 20.00    -0.180  OA
BRANCH  23  24
HETATM   24  P2  NAD X   1       0.890  -1.354  -7.451  1.00 20.00     0.418   P
HETATM   25  O8  NAD X   1       1.585  -0.335  -6.603  1.00 20.00    -0.624  OA
HETATM   26  O9  NAD X   1      -0.569  -1.292  -7.743  1.00 20.00    -0.624  OA
BRANCH  24  27
HETATM   27 O10  NAD X   1       1.802  -1.106  -8.751  1.00 20.00    -0.268  OA
BRANCH  27  28
HETATM   28 C11  NAD X   1       1.487  -0.181  -9.788  1.00 20.00     0.187   C
BRANCH  28  29
HETATM   29 C12  NAD X   1       1.946  -0.788 -11.120  1.00 20.00     0.181   C
HETATM   30 O11  NAD X   1       2.266   0.271 -12.071  1.00 20.00    -0.331  OA
HETATM   31 C15  NAD X   1       3.481  -0.158 -12.681  1.00 20.00     0.239   C
HETATM   32 C14  NAD X   1       4.258  -0.810 -11.565  1.00 20.00     0.234   C
HETATM   33 C13  NAD X   1       3.204  -1.632 -10.906  1.00 20.00     0.216   C
HETATM   34 O13  NAD X   1       5.214  -1.650 -12.142  1.00 20.00    -0.216  OA
HETATM   35 O12  NAD X   1       3.018  -2.800 -11.619  1.00 20.00    -0.218  OA
BRANCH  31  36
HETATM   36  N6  NAD X   1       4.163   0.948 -13.327  1.00 20.00    -0.301   N
HETATM   37 C16  NAD X   1       4.575   1.983 -12.499  1.00 20.00     0.082   C
HETATM   38 C17  NAD X   1       5.299   3.099 -12.804  1.00 20.00     0.063   C
HETATM   39 C19  NAD X   1       5.422   3.157 -14.161  1.00 20.00     0.007   C
HETATM   40 C20  NAD X   1       4.936   2.232 -15.126  1.00 20.00     0.019   C
HETATM   41 C21  NAD X   1       4.292   1.047 -14.666  1.00 20.00     0.078   C
BRANCH  38  42
HETATM   42 C18  NAD X   1       5.705   4.201 -11.914  1.00 20.00     0.234   C
HETATM   43  N7  NAD X   1       5.711   4.127 -10.592  1.00 20.00    -0.118   N
HETATM   44 O14  NAD X   1       5.986   5.438 -12.343  1.00 20.00    -0.167  OA
ENDBRANCH  38  42
ENDBRANCH  31  36
ENDBRANCH  28  29
ENDBRANCH  27  28
ENDBRANCH  24  27
ENDBRANCH  23  24
ENDBRANCH   1  23
TORSDOF 11