ROOT
HETATM    1  C1  KNI B 900       8.862  -0.898   3.858  1.00 31.81     0.099   A
HETATM    2  C2  KNI B 900       8.739   0.129   4.776  1.00 31.46     0.023   A
HETATM    3  C3  KNI B 900       8.657   1.461   4.331  1.00 30.02     0.025   A
HETATM    4  C4  KNI B 900       8.706   1.655   2.973  1.00 31.19     0.021   A
HETATM    5  C5  KNI B 900       8.831   0.515   2.113  1.00 31.22     0.099   A
HETATM    6  C6  KNI B 900       8.529   2.555   5.249  1.00 28.81     0.095   A
HETATM    7  C7  KNI B 900       8.458   3.836   4.712  1.00 29.66     0.024   A
HETATM    8  C8  KNI B 900       8.508   4.039   3.352  1.00 32.04     0.002   A
HETATM    9  C9  KNI B 900       8.630   2.977   2.458  1.00 32.83     0.002   A
HETATM   10  N1  KNI B 900       8.914  -0.742   2.552  1.00 32.44    -0.242  NA
ENDROOT
BRANCH   6  11
HETATM   11  O1  KNI B 900       8.492   2.299   6.615  1.00 25.21    -0.321  OA
BRANCH  11  12
HETATM   12 C10  KNI B 900       8.413   3.439   7.426  1.00 22.94     0.236   C
BRANCH  12  13
HETATM   13 C11  KNI B 900       7.772   4.525   6.646  1.00 20.49     0.262   C
HETATM   14  O3  KNI B 900       8.199   4.850   5.553  1.00 22.09    -0.270  OA
HETATM   15  N2  KNI B 900       6.710   5.084   7.197  1.00 21.41    -0.336   N
HETATM   16 HN2  KNI B 900       6.351   4.763   8.071  1.00 15.00     0.164  HD
BRANCH  15  17
HETATM   17 C26  KNI B 900       6.107   6.250   6.572  1.00 22.03     0.170   C
BRANCH  17  18
HETATM   18 C12  KNI B 900       7.149   7.300   6.271  1.00 24.82     0.089   C
BRANCH  18  19
HETATM   19  S1  KNI B 900       6.316   8.514   5.211  1.00 31.66    -0.137  SA
HETATM   20 C27  KNI B 900       4.618   8.047   5.699  1.00 28.64     0.069   C
ENDBRANCH  18  19
ENDBRANCH  17  18
BRANCH  17  21
HETATM   21 C13  KNI B 900       5.365   5.833   5.326  1.00 19.38     0.252   C
HETATM   22  O6  KNI B 900       5.546   6.398   4.259  1.00 19.61    -0.271  OA
HETATM   23  N3  KNI B 900       4.544   4.796   5.473  1.00 17.23    -0.342   N
HETATM   24 HN3  KNI B 900       4.414   4.371   6.372  1.00 15.00     0.163  HD
BRANCH  23  25
HETATM   25 C14  KNI B 900       3.820   4.223   4.333  1.00 18.12     0.120   C
BRANCH  25  26
HETATM   26 C15  KNI B 900       4.481   4.674   3.024  1.00 17.64     0.210   C
BRANCH  26  27
HETATM   27 C17  KNI B 900       3.444   4.866   1.919  1.00 19.01     0.263   C
HETATM   28  O4  KNI B 900       3.330   4.023   1.035  1.00 17.77    -0.270  OA
HETATM   29  N4  KNI B 900       2.728   6.005   2.010  1.00 20.71    -0.301   N
HETATM   30 C20  KNI B 900       2.899   6.951   3.118  1.00 20.81     0.164   C
HETATM   31 C18  KNI B 900       1.841   6.399   0.904  1.00 19.84     0.174   C
HETATM   32  S2  KNI B 900       1.907   8.406   2.680  1.00 25.22    -0.114  SA
HETATM   33 C19  KNI B 900       1.004   7.610   1.315  1.00 18.96     0.091   C
BRANCH  31  34
HETATM   34 C21  KNI B 900       2.702   6.709  -0.283  1.00 19.96     0.252   C
HETATM   35  O5  KNI B 900       2.198   6.973  -1.368  1.00 21.99    -0.271  OA
HETATM   36  N5  KNI B 900       4.010   6.675  -0.058  1.00 16.49    -0.347   N
HETATM   37 HN5  KNI B 900       4.326   6.380   0.848  1.00 15.00     0.163  HD
BRANCH  36  38
HETATM   38 C22  KNI B 900       4.997   7.142  -1.040  1.00 17.46     0.064   C
HETATM   39 C23  KNI B 900       5.989   8.135  -0.424  1.00 17.61     0.022   C
HETATM   40 C24  KNI B 900       4.302   7.764  -2.253  1.00 18.08     0.022   C
HETATM   41 C25  KNI B 900       5.802   5.923  -1.474  1.00 17.58     0.022   C
ENDBRANCH  36  38
ENDBRANCH  31  34
ENDBRANCH  26  27
BRANCH  26  42
HETATM   42  O2  KNI B 900       5.072   5.901   3.268  1.00 17.78    -0.375  OA
HETATM   43 HO2  KNI B 900       5.528   5.714   4.103  1.00 15.00     0.211  HD
ENDBRANCH  26  42
ENDBRANCH  25  26
BRANCH  25  44
HETATM   44 C16  KNI B 900       2.326   4.573   4.440  1.00 17.12     0.051   C
BRANCH  44  45
HETATM   45 C28  KNI B 900       1.905   5.628   3.437  1.00 19.72    -0.020   A
HETATM   46 C29  KNI B 900       0.572   5.880   3.183  1.00 20.68    -0.004   A
HETATM   47 C30  KNI B 900       0.209   6.848   2.261  1.00 21.38    -0.000   A
HETATM   48 C31  KNI B 900       1.162   7.565   1.576  1.00 20.30    -0.000   A
HETATM   49 C32  KNI B 900       2.482   7.314   1.829  1.00 20.29    -0.000   A
HETATM   50 C33  KNI B 900       2.854   6.357   2.751  1.00 20.35    -0.004   A
ENDBRANCH  44  45
ENDBRANCH  25  44
ENDBRANCH  23  25
ENDBRANCH  17  21
ENDBRANCH  15  17
ENDBRANCH  12  13
ENDBRANCH  11  12
ENDBRANCH   6  11
TORSDOF 15