ROOT
HETATM    1  C1  KNI B 900       9.417   5.427   7.984  1.00 31.81     0.099   A
HETATM    2  C2  KNI B 900       9.027   4.202   7.478  1.00 31.46     0.023   A
HETATM    3  C3  KNI B 900       9.030   3.984   6.087  1.00 30.02     0.025   A
HETATM    4  C4  KNI B 900       9.433   5.039   5.305  1.00 31.19     0.021   A
HETATM    5  C5  KNI B 900       9.820   6.264   5.939  1.00 31.22     0.099   A
HETATM    6  C6  KNI B 900       8.632   2.728   5.521  1.00 28.81     0.095   A
HETATM    7  C7  KNI B 900       8.665   2.612   4.135  1.00 29.66     0.024   A
HETATM    8  C8  KNI B 900       9.067   3.664   3.344  1.00 32.04     0.002   A
HETATM    9  C9  KNI B 900       9.456   4.885   3.893  1.00 32.83     0.002   A
HETATM   10  N1  KNI B 900       9.806   6.456   7.260  1.00 32.44    -0.242  NA
ENDROOT
BRANCH   6  11
HETATM   11  O1  KNI B 900       8.226   1.698   6.362  1.00 25.21    -0.321  OA
BRANCH  11  12
HETATM   12 C10  KNI B 900       7.909   0.498   5.711  1.00 22.94     0.236   C
BRANCH  12  13
HETATM   13 C11  KNI B 900       8.899   0.276   4.631  1.00 20.49     0.262   C
HETATM   14  O3  KNI B 900       8.811  -0.682   3.884  1.00 22.09    -0.270  OA
HETATM   15  N2  KNI B 900       9.849   1.187   4.519  1.00 21.41    -0.336   N
HETATM   16 HN2  KNI B 900       9.869   1.990   5.112  1.00 15.00     0.164  HD
BRANCH  15  17
HETATM   17 C26  KNI B 900      10.942   0.974   3.585  1.00 22.03     0.170   C
BRANCH  17  18
HETATM   18 C12  KNI B 900      12.233   0.699   4.318  1.00 24.82     0.089   C
BRANCH  18  19
HETATM   19  S1  KNI B 900      13.517   1.568   3.376  1.00 31.66    -0.137  SA
HETATM   20 C27  KNI B 900      14.743   1.605   4.730  1.00 28.64     0.069   C
ENDBRANCH  18  19
ENDBRANCH  17  18
BRANCH  17  21
HETATM   21 C13  KNI B 900      10.593  -0.149   2.639  1.00 19.38     0.252   C
HETATM   22  O6  KNI B 900       9.879   0.038   1.666  1.00 19.61    -0.271  OA
HETATM   23  N3  KNI B 900      11.147  -1.325   2.924  1.00 17.23    -0.342   N
HETATM   24 HN3  KNI B 900      11.716  -1.437   3.742  1.00 15.00     0.163  HD
BRANCH  23  25
HETATM   25 C14  KNI B 900      10.969  -2.489   2.048  1.00 18.12     0.120   C
BRANCH  25  26
HETATM   26 C15  KNI B 900      10.135  -3.555   2.771  1.00 17.64     0.210   C
BRANCH  26  27
HETATM   27 C17  KNI B 900       8.993  -4.055   1.890  1.00 19.01     0.263   C
HETATM   28  O4  KNI B 900       8.370  -5.062   2.210  1.00 17.77    -0.270  OA
HETATM   29  N4  KNI B 900       8.774  -3.321   0.781  1.00 20.71    -0.301   N
HETATM   30 C20  KNI B 900       9.541  -2.107   0.481  1.00 20.81     0.164   C
HETATM   31 C18  KNI B 900       7.838  -3.809  -0.244  1.00 19.84     0.174   C
HETATM   32  S2  KNI B 900       9.053  -1.619  -1.198  1.00 25.22    -0.114  SA
HETATM   33 C19  KNI B 900       7.616  -2.731  -1.303  1.00 18.96     0.091   C
BRANCH  31  34
HETATM   34 C21  KNI B 900       8.426  -5.050  -0.846  1.00 19.96     0.252   C
HETATM   35  O5  KNI B 900       9.320  -5.660  -0.270  1.00 21.99    -0.271  OA
HETATM   36  N5  KNI B 900       7.908  -5.415  -2.012  1.00 16.49    -0.347   N
HETATM   37 HN5  KNI B 900       7.227  -4.811  -2.436  1.00 15.00     0.163  HD
BRANCH  36  38
HETATM   38 C22  KNI B 900       8.215  -6.701  -2.650  1.00 17.46     0.064   C
HETATM   39 C23  KNI B 900       9.461  -6.616  -3.539  1.00 17.61     0.022   C
HETATM   40 C24  KNI B 900       7.016  -7.204  -3.459  1.00 18.08     0.022   C
HETATM   41 C25  KNI B 900       8.533  -7.686  -1.532  1.00 17.58     0.022   C
ENDBRANCH  36  38
ENDBRANCH  31  34
ENDBRANCH  26  27
BRANCH  26  42
HETATM   42  O2  KNI B 900      10.975  -4.626   3.024  1.00 17.78    -0.375  OA
HETATM   43 HO2  KNI B 900      11.230  -4.868   2.121  1.00 15.00     0.211  HD
ENDBRANCH  26  42
ENDBRANCH  25  26
BRANCH  25  44
HETATM   44 C16  KNI B 900      12.341  -2.984   1.561  1.00 17.12     0.051   C
BRANCH  44  45
HETATM   45 C28  KNI B 900      12.681  -4.363   2.090  1.00 19.72    -0.020   A
HETATM   46 C29  KNI B 900      13.239  -4.531   3.341  1.00 20.68    -0.004   A
HETATM   47 C30  KNI B 900      13.544  -5.800   3.803  1.00 21.38    -0.000   A
HETATM   48 C31  KNI B 900      13.309  -6.911   3.027  1.00 20.30    -0.000   A
HETATM   49 C32  KNI B 900      12.756  -6.743   1.788  1.00 20.29    -0.000   A
HETATM   50 C33  KNI B 900      12.442  -5.484   1.321  1.00 20.35    -0.004   A
ENDBRANCH  44  45
ENDBRANCH  25  44
ENDBRANCH  23  25
ENDBRANCH  17  21
ENDBRANCH  15  17
ENDBRANCH  12  13
ENDBRANCH  11  12
ENDBRANCH   6  11
TORSDOF 15