ROOT
HETATM    1  C1  KNI B 900       4.113   2.926   9.092  1.00 31.81     0.099   A
HETATM    2  C2  KNI B 900       5.188   2.454   9.822  1.00 31.46     0.023   A
HETATM    3  C3  KNI B 900       5.862   3.310  10.712  1.00 30.02     0.025   A
HETATM    4  C4  KNI B 900       5.391   4.597  10.795  1.00 31.19     0.021   A
HETATM    5  C5  KNI B 900       4.265   4.977   9.994  1.00 31.22     0.099   A
HETATM    6  C6  KNI B 900       6.981   2.860  11.487  1.00 28.81     0.095   A
HETATM    7  C7  KNI B 900       7.584   3.783  12.336  1.00 29.66     0.024   A
HETATM    8  C8  KNI B 900       7.119   5.075  12.425  1.00 32.04     0.002   A
HETATM    9  C9  KNI B 900       6.029   5.514  11.673  1.00 32.83     0.002   A
HETATM   10  N1  KNI B 900       3.640   4.154   9.150  1.00 32.44    -0.242  NA
ENDROOT
BRANCH   6  11
HETATM   11  O1  KNI B 900       7.420   1.548  11.355  1.00 25.21    -0.321  OA
BRANCH  11  12
HETATM   12 C10  KNI B 900       7.465   1.070  10.039  1.00 22.94     0.236   C
BRANCH  12  13
HETATM   13 C11  KNI B 900       6.867   2.095   9.150  1.00 20.49     0.262   C
HETATM   14  O3  KNI B 900       6.047   2.891   9.568  1.00 22.09    -0.270  OA
HETATM   15  N2  KNI B 900       7.300   2.101   7.901  1.00 21.41    -0.336   N
HETATM   16 HN2  KNI B 900       8.011   1.469   7.597  1.00 15.00     0.164  HD
BRANCH  15  17
HETATM   17 C26  KNI B 900       6.666   2.972   6.926  1.00 22.03     0.170   C
BRANCH  17  18
HETATM   18 C12  KNI B 900       5.674   3.895   7.591  1.00 24.82     0.089   C
BRANCH  18  19
HETATM   19  S1  KNI B 900       4.140   3.721   6.639  1.00 31.66    -0.137  SA
HETATM   20 C27  KNI B 900       4.418   5.181   5.577  1.00 28.64     0.069   C
ENDBRANCH  18  19
ENDBRANCH  17  18
BRANCH  17  21
HETATM   21 C13  KNI B 900       7.720   3.744   6.171  1.00 19.38     0.252   C
HETATM   22  O6  KNI B 900       8.591   3.175   5.533  1.00 19.61    -0.271  OA
HETATM   23  N3  KNI B 900       7.601   5.069   6.224  1.00 17.23    -0.342   N
HETATM   24 HN3  KNI B 900       6.878   5.496   6.772  1.00 15.00     0.163  HD
BRANCH  23  25
HETATM   25 C14  KNI B 900       8.499   5.951   5.470  1.00 18.12     0.120   C
BRANCH  25  26
HETATM   26 C15  KNI B 900       9.702   6.330   6.344  1.00 17.64     0.210   C
BRANCH  26  27
HETATM   27 C17  KNI B 900      10.633   7.295   5.615  1.00 19.01     0.263   C
HETATM   28  O4  KNI B 900      11.304   6.898   4.667  1.00 17.77    -0.270  OA
HETATM   29  N4  KNI B 900      10.647   8.549   6.110  1.00 20.71    -0.301   N
HETATM   30 C20  KNI B 900       9.790   8.958   7.228  1.00 20.81     0.164   C
HETATM   31 C18  KNI B 900      11.644   9.515   5.623  1.00 19.84     0.174   C
HETATM   32  S2  KNI B 900      10.331  10.632   7.675  1.00 25.22    -0.114  SA
HETATM   33 C19  KNI B 900      11.344  10.902   6.187  1.00 18.96     0.091   C
BRANCH  31  34
HETATM   34 C21  KNI B 900      12.996   9.032   6.055  1.00 19.96     0.252   C
HETATM   35  O5  KNI B 900      13.217   7.835   6.194  1.00 21.99    -0.271  OA
HETATM   36  N5  KNI B 900      13.898   9.984   6.261  1.00 16.49    -0.347   N
HETATM   37 HN5  KNI B 900      13.601  10.940   6.187  1.00 15.00     0.163  HD
BRANCH  36  38
HETATM   38 C22  KNI B 900      15.320   9.696   6.492  1.00 17.46     0.064   C
HETATM   39 C23  KNI B 900      15.516   8.591   7.537  1.00 17.61     0.022   C
HETATM   40 C24  KNI B 900      16.069  10.964   6.908  1.00 18.08     0.022   C
HETATM   41 C25  KNI B 900      15.883   9.169   5.178  1.00 17.58     0.022   C
ENDBRANCH  36  38
ENDBRANCH  31  34
ENDBRANCH  26  27
BRANCH  26  42
HETATM   42  O2  KNI B 900       9.205   6.982   7.459  1.00 17.78    -0.375  OA
HETATM   43 HO2  KNI B 900       8.793   7.755   7.044  1.00 15.00     0.211  HD
ENDBRANCH  26  42
ENDBRANCH  25  26
BRANCH  25  44
HETATM   44 C16  KNI B 900       7.709   7.153   4.928  1.00 17.12     0.051   C
BRANCH  44  45
HETATM   45 C28  KNI B 900       8.604   8.193   4.284  1.00 19.72    -0.020   A
HETATM   46 C29  KNI B 900       9.767   7.831   3.635  1.00 20.68    -0.004   A
HETATM   47 C30  KNI B 900      10.572   8.798   3.055  1.00 21.38    -0.000   A
HETATM   48 C31  KNI B 900      10.237  10.130   3.122  1.00 20.30    -0.000   A
HETATM   49 C32  KNI B 900       9.084  10.487   3.765  1.00 20.29    -0.000   A
HETATM   50 C33  KNI B 900       8.272   9.531   4.340  1.00 20.35    -0.004   A
ENDBRANCH  44  45
ENDBRANCH  25  44
ENDBRANCH  23  25
ENDBRANCH  17  21
ENDBRANCH  15  17
ENDBRANCH  12  13
ENDBRANCH  11  12
ENDBRANCH   6  11
TORSDOF 15