ROOT
HETATM    1  C1  KNI B 900       9.165   5.461   8.076  1.00 31.81     0.099   A
HETATM    2  C2  KNI B 900       8.578   4.217   7.942  1.00 31.46     0.023   A
HETATM    3  C3  KNI B 900       8.658   3.534   6.715  1.00 30.02     0.025   A
HETATM    4  C4  KNI B 900       9.333   4.171   5.704  1.00 31.19     0.021   A
HETATM    5  C5  KNI B 900       9.906   5.460   5.957  1.00 31.22     0.099   A
HETATM    6  C6  KNI B 900       8.063   2.242   6.533  1.00 28.81     0.095   A
HETATM    7  C7  KNI B 900       8.192   1.648   5.281  1.00 29.66     0.024   A
HETATM    8  C8  KNI B 900       8.867   2.281   4.262  1.00 32.04     0.002   A
HETATM    9  C9  KNI B 900       9.447   3.536   4.438  1.00 32.83     0.002   A
HETATM   10  N1  KNI B 900       9.817   6.097   7.126  1.00 32.44    -0.242  NA
ENDROOT
BRANCH   6  11
HETATM   11  O1  KNI B 900       7.384   1.647   7.590  1.00 25.21    -0.321  OA
BRANCH  11  12
HETATM   12 C10  KNI B 900       6.801   2.544   8.495  1.00 22.94     0.236   C
BRANCH  12  13
HETATM   13 C11  KNI B 900       6.964   3.918   7.962  1.00 20.49     0.262   C
HETATM   14  O3  KNI B 900       6.379   4.861   8.463  1.00 22.09    -0.270  OA
HETATM   15  N2  KNI B 900       7.794   4.049   6.943  1.00 21.41    -0.336   N
HETATM   16 HN2  KNI B 900       8.300   3.267   6.584  1.00 15.00     0.164  HD
BRANCH  15  17
HETATM   17 C26  KNI B 900       7.903   5.331   6.266  1.00 22.03     0.170   C
BRANCH  17  18
HETATM   18 C12  KNI B 900       9.143   5.383   5.405  1.00 24.82     0.089   C
BRANCH  18  19
HETATM   19  S1  KNI B 900       8.765   4.361   3.955  1.00 31.66    -0.137  SA
HETATM   20 C27  KNI B 900       9.086   5.669   2.721  1.00 28.64     0.069   C
ENDBRANCH  18  19
ENDBRANCH  17  18
BRANCH  17  21
HETATM   21 C13  KNI B 900       6.656   5.587   5.456  1.00 19.38     0.252   C
HETATM   22  O6  KNI B 900       5.622   5.967   5.983  1.00 19.61    -0.271  OA
HETATM   23  N3  KNI B 900       6.784   5.408   4.143  1.00 17.23    -0.342   N
HETATM   24 HN3  KNI B 900       7.648   5.081   3.754  1.00 15.00     0.163  HD
BRANCH  23  25
HETATM   25 C14  KNI B 900       5.683   5.701   3.218  1.00 18.12     0.120   C
BRANCH  25  26
HETATM   26 C15  KNI B 900       5.258   7.167   3.373  1.00 17.64     0.210   C
BRANCH  26  27
HETATM   27 C17  KNI B 900       4.074   7.498   2.467  1.00 19.01     0.263   C
HETATM   28  O4  KNI B 900       4.232   7.555   1.251  1.00 17.77    -0.270  OA
HETATM   29  N4  KNI B 900       2.914   7.724   3.114  1.00 20.71    -0.301   N
HETATM   30 C20  KNI B 900       2.794   7.604   4.571  1.00 20.81     0.164   C
HETATM   31 C18  KNI B 900       1.753   8.242   2.373  1.00 19.84     0.174   C
HETATM   32  S2  KNI B 900       1.138   8.223   4.982  1.00 25.22    -0.114  SA
HETATM   33 C19  KNI B 900       0.517   8.237   3.271  1.00 18.96     0.091   C
BRANCH  31  34
HETATM   34 C21  KNI B 900       2.088   9.629   1.914  1.00 19.96     0.252   C
HETATM   35  O5  KNI B 900       1.304  10.262   1.215  1.00 21.99    -0.271  OA
HETATM   36  N5  KNI B 900       3.264  10.092   2.320  1.00 16.49    -0.347   N
HETATM   37 HN5  KNI B 900       3.864   9.471   2.832  1.00 15.00     0.163  HD
BRANCH  36  38
HETATM   38 C22  KNI B 900       3.673  11.491   2.139  1.00 17.46     0.064   C
HETATM   39 C23  KNI B 900       3.367  11.997   0.724  1.00 17.61     0.022   C
HETATM   40 C24  KNI B 900       5.159  11.666   2.459  1.00 18.08     0.022   C
HETATM   41 C25  KNI B 900       2.835  12.325   3.100  1.00 17.58     0.022   C
ENDBRANCH  36  38
ENDBRANCH  31  34
ENDBRANCH  26  27
BRANCH  26  42
HETATM   42  O2  KNI B 900       4.847   7.336   4.684  1.00 17.78    -0.375  OA
HETATM   43 HO2  KNI B 900       3.926   7.602   4.548  1.00 15.00     0.211  HD
ENDBRANCH  26  42
ENDBRANCH  25  26
BRANCH  25  44
HETATM   44 C16  KNI B 900       4.546   4.688   3.429  1.00 17.12     0.051   C
BRANCH  44  45
HETATM   45 C28  KNI B 900       3.307   5.032   2.628  1.00 19.72    -0.020   A
HETATM   46 C29  KNI B 900       3.375   5.252   1.267  1.00 20.68    -0.004   A
HETATM   47 C30  KNI B 900       2.230   5.568   0.554  1.00 21.38    -0.000   A
HETATM   48 C31  KNI B 900       1.012   5.677   1.183  1.00 20.30    -0.000   A
HETATM   49 C32  KNI B 900       0.947   5.458   2.531  1.00 20.29    -0.000   A
HETATM   50 C33  KNI B 900       2.080   5.137   3.250  1.00 20.35    -0.004   A
ENDBRANCH  44  45
ENDBRANCH  25  44
ENDBRANCH  23  25
ENDBRANCH  17  21
ENDBRANCH  15  17
ENDBRANCH  12  13
ENDBRANCH  11  12
ENDBRANCH   6  11
TORSDOF 15