ROOT
HETATM    1  C1  KNI B 900       5.151   3.035   5.444  1.00 31.81     0.099   A
HETATM    2  C2  KNI B 900       5.094   3.192   6.816  1.00 31.46     0.023   A
HETATM    3  C3  KNI B 900       3.968   3.797   7.406  1.00 30.02     0.025   A
HETATM    4  C4  KNI B 900       2.974   4.202   6.550  1.00 31.19     0.021   A
HETATM    5  C5  KNI B 900       3.139   3.984   5.143  1.00 31.22     0.099   A
HETATM    6  C6  KNI B 900       3.869   3.979   8.825  1.00 28.81     0.095   A
HETATM    7  C7  KNI B 900       2.718   4.591   9.312  1.00 29.66     0.024   A
HETATM    8  C8  KNI B 900       1.718   5.000   8.461  1.00 32.04     0.002   A
HETATM    9  C9  KNI B 900       1.812   4.822   7.081  1.00 32.83     0.002   A
HETATM   10  N1  KNI B 900       4.215   3.414   4.599  1.00 32.44    -0.242  NA
ENDROOT
BRANCH   6  11
HETATM   11  O1  KNI B 900       4.911   3.557   9.643  1.00 25.21    -0.321  OA
BRANCH  11  12
HETATM   12 C10  KNI B 900       6.098   3.242   8.969  1.00 22.94     0.236   C
BRANCH  12  13
HETATM   13 C11  KNI B 900       6.383   4.321   7.994  1.00 20.49     0.262   C
HETATM   14  O3  KNI B 900       7.364   5.032   8.111  1.00 22.09    -0.270  OA
HETATM   15  N2  KNI B 900       5.529   4.436   6.992  1.00 21.41    -0.336   N
HETATM   16 HN2  KNI B 900       4.761   3.807   6.892  1.00 15.00     0.164  HD
BRANCH  15  17
HETATM   17 C26  KNI B 900       5.648   5.555   6.072  1.00 22.03     0.170   C
BRANCH  17  18
HETATM   18 C12  KNI B 900       6.776   6.472   6.480  1.00 24.82     0.089   C
BRANCH  18  19
HETATM   19  S1  KNI B 900       7.686   5.572   7.766  1.00 31.66    -0.137  SA
HETATM   20 C27  KNI B 900       9.282   5.549   6.877  1.00 28.64     0.069   C
ENDBRANCH  18  19
ENDBRANCH  17  18
BRANCH  17  21
HETATM   21 C13  KNI B 900       5.835   5.041   4.665  1.00 19.38     0.252   C
HETATM   22  O6  KNI B 900       6.913   4.618   4.280  1.00 19.61    -0.271  OA
HETATM   23  N3  KNI B 900       4.740   5.049   3.908  1.00 17.23    -0.342   N
HETATM   24 HN3  KNI B 900       3.878   5.418   4.260  1.00 15.00     0.163  HD
BRANCH  23  25
HETATM   25 C14  KNI B 900       4.745   4.499   2.547  1.00 18.12     0.120   C
BRANCH  25  26
HETATM   26 C15  KNI B 900       5.430   5.489   1.595  1.00 17.64     0.210   C
BRANCH  26  27
HETATM   27 C17  KNI B 900       4.571   6.734   1.381  1.00 19.01     0.263   C
HETATM   28  O4  KNI B 900       3.710   7.031   2.202  1.00 17.77    -0.270  OA
HETATM   29  N4  KNI B 900       4.839   7.415   0.249  1.00 20.71    -0.301   N
HETATM   30 C20  KNI B 900       5.909   7.017  -0.671  1.00 20.81     0.164   C
HETATM   31 C18  KNI B 900       3.953   8.514  -0.167  1.00 19.84     0.174   C
HETATM   32  S2  KNI B 900       5.725   8.079  -2.131  1.00 25.22    -0.114  SA
HETATM   33 C19  KNI B 900       4.559   9.247  -1.363  1.00 18.96     0.091   C
BRANCH  31  34
HETATM   34 C21  KNI B 900       2.620   7.921  -0.511  1.00 19.96     0.252   C
HETATM   35  O5  KNI B 900       2.327   6.788  -0.144  1.00 21.99    -0.271  OA
HETATM   36  N5  KNI B 900       1.817   8.704  -1.220  1.00 16.49    -0.347   N
HETATM   37 HN5  KNI B 900       2.174   9.589  -1.531  1.00 15.00     0.163  HD
BRANCH  36  38
HETATM   38 C22  KNI B 900       0.409   8.375  -1.477  1.00 17.46     0.064   C
HETATM   39 C23  KNI B 900      -0.533   9.089  -0.500  1.00 17.61     0.022   C
HETATM   40 C24  KNI B 900       0.188   6.861  -1.421  1.00 18.08     0.022   C
HETATM   41 C25  KNI B 900       0.079   8.894  -2.871  1.00 17.58     0.022   C
ENDBRANCH  36  38
ENDBRANCH  31  34
ENDBRANCH  26  27
BRANCH  26  42
HETATM   42  O2  KNI B 900       6.609   5.887   2.200  1.00 17.78    -0.375  OA
HETATM   43 HO2  KNI B 900       6.296   6.642   2.720  1.00 15.00     0.211  HD
ENDBRANCH  26  42
ENDBRANCH  25  26
BRANCH  25  44
HETATM   44 C16  KNI B 900       3.313   4.118   2.138  1.00 17.12     0.051   C
BRANCH  44  45
HETATM   45 C28  KNI B 900       2.267   4.734   3.046  1.00 19.72    -0.020   A
HETATM   46 C29  KNI B 900       2.198   4.402   4.384  1.00 20.68    -0.004   A
HETATM   47 C30  KNI B 900       1.233   4.975   5.195  1.00 21.38    -0.000   A
HETATM   48 C31  KNI B 900       0.323   5.872   4.686  1.00 20.30    -0.000   A
HETATM   49 C32  KNI B 900       0.392   6.200   3.361  1.00 20.29    -0.000   A
HETATM   50 C33  KNI B 900       1.355   5.640   2.546  1.00 20.35    -0.004   A
ENDBRANCH  44  45
ENDBRANCH  25  44
ENDBRANCH  23  25
ENDBRANCH  17  21
ENDBRANCH  15  17
ENDBRANCH  12  13
ENDBRANCH  11  12
ENDBRANCH   6  11
TORSDOF 15