ROOT
HETATM    1 N01  NMB A 501      12.786  23.073   6.342  1.00 15.06    -0.236   N
HETATM    2 S02  NMB A 501      12.303  24.428   5.515  1.00 12.44     0.327   S
HETATM    3 N03  NMB A 501      11.068  23.841   4.662  1.00 13.50    -0.254   N
HETATM    4 C04  NMB A 501      11.480  23.016   3.495  1.00 16.90     0.157   C
HETATM    5 C05  NMB A 501      11.534  21.542   3.851  1.00 12.70     0.208   C
HETATM    6 C06  NMB A 501      11.903  21.251   5.288  1.00 12.56     0.208   C
HETATM    7 C07  NMB A 501      13.226  21.816   5.779  1.00 11.34     0.162   C
HETATM    8 O15  NMB A 501      13.309  24.904   4.594  1.00 13.56    -0.182  OA
HETATM    9 O30  NMB A 501      10.268  20.956   3.646  1.00 13.24    -0.218  OA
HETATM   10 O31  NMB A 501      11.835  19.855   5.458  1.00 15.08    -0.218  OA
HETATM   11 O40  NMB A 501      11.760  25.347   6.459  1.00 16.60    -0.182  OA
ENDROOT
BRANCH   1  12
HETATM   12 C08  NMB A 501      13.461  23.357   7.534  1.00 15.66     0.088   C
BRANCH  12  13
HETATM   13 C09  NMB A 501      14.504  22.632   8.312  1.00 14.71     0.018   A
HETATM   14 C10  NMB A 501      14.154  21.734   9.326  1.00 12.56     0.002   A
HETATM   15 C11  NMB A 501      15.145  21.069  10.049  1.00 19.25     0.000   A
HETATM   16 C12  NMB A 501      16.518  21.308   9.760  1.00 18.30     0.000   A
HETATM   17 C13  NMB A 501      16.886  22.212   8.747  1.00 14.23     0.000   A
HETATM   18 C14  NMB A 501      15.872  22.876   8.022  1.00 15.35     0.002   A
ENDBRANCH  12  13
ENDBRANCH   1  12
BRANCH   7  19
HETATM   19 C32  NMB A 501      14.437  22.008   4.847  1.00 11.25     0.175   C
BRANCH  19  20
HETATM   20 O33  NMB A 501      14.037  23.039   3.910  1.00 12.26    -0.329  OA
BRANCH  20  21
HETATM   21 C34  NMB A 501      12.972  23.818   4.182  1.00 12.57     0.094   A
HETATM   22 C35  NMB A 501      12.747  24.308   5.483  1.00 14.00     0.024   A
HETATM   23 C36  NMB A 501      11.638  25.114   5.778  1.00 14.78     0.002   A
HETATM   24 C37  NMB A 501      10.732  25.436   4.762  1.00 14.25     0.000   A
HETATM   25 C38  NMB A 501      10.943  24.948   3.461  1.00 17.66     0.002   A
HETATM   26 C39  NMB A 501      12.067  24.143   3.178  1.00 14.50     0.024   A
ENDBRANCH  20  21
ENDBRANCH  19  20
ENDBRANCH   7  19
BRANCH   3  27
HETATM   27 C23  NMB A 501       9.742  23.757   5.313  1.00 11.47     0.141   C
BRANCH  27  28
HETATM   28 C24  NMB A 501       8.990  25.026   5.610  1.00 12.93     0.001   A
HETATM   29 C25  NMB A 501       8.374  25.226   6.870  1.00 16.94    -0.002   A
HETATM   30 C26  NMB A 501       7.675  26.434   7.145  1.00 18.28    -0.000   A
HETATM   31 C27  NMB A 501       7.591  27.440   6.160  1.00 13.74    -0.000   A
HETATM   32 C28  NMB A 501       8.204  27.237   4.903  1.00 16.62    -0.000   A
HETATM   33 C29  NMB A 501       8.899  26.036   4.635  1.00 13.68    -0.002   A
ENDBRANCH  27  28
ENDBRANCH   3  27
BRANCH   4  34
HETATM   34 C41  NMB A 501      10.591  23.269   2.265  1.00 18.23     0.174   C
BRANCH  34  35
HETATM   35 O16  NMB A 501       9.515  24.171   2.613  1.00 20.72    -0.329  OA
BRANCH  35  36
HETATM   36 C17  NMB A 501       9.501  24.756   3.839  1.00 14.47     0.094   A
HETATM   37 C18  NMB A 501      10.460  24.395   4.809  1.00 11.79     0.024   A
HETATM   38 C19  NMB A 501      10.451  25.002   6.074  1.00 14.96     0.002   A
HETATM   39 C20  NMB A 501       9.480  25.984   6.366  1.00 14.23     0.000   A
HETATM   40 C21  NMB A 501       8.525  26.350   5.402  1.00 12.66     0.002   A
HETATM   41 C22  NMB A 501       8.541  25.732   4.147  1.00 11.31     0.024   A
ENDBRANCH  35  36
ENDBRANCH  34  35
ENDBRANCH   4  34
TORSDOF 10