ROOT
HETATM    1 N01  NMB A 501      11.403  24.566   7.095  1.00 15.06    -0.236   N
HETATM    2 S02  NMB A 501      11.309  23.117   7.899  1.00 12.44     0.327   S
HETATM    3 N03  NMB A 501      12.417  22.257   7.108  1.00 13.50    -0.254   N
HETATM    4 C04  NMB A 501      11.971  21.785   5.769  1.00 16.90     0.157   C
HETATM    5 C05  NMB A 501      12.387  22.751   4.676  1.00 12.70     0.208   C
HETATM    6 C06  NMB A 501      12.455  24.200   5.103  1.00 12.56     0.208   C
HETATM    7 C07  NMB A 501      11.184  24.798   5.685  1.00 11.34     0.162   C
HETATM    8 O15  NMB A 501      10.027  22.474   7.734  1.00 13.56    -0.182  OA
HETATM    9 O30  NMB A 501      13.677  22.419   4.212  1.00 13.24    -0.218  OA
HETATM   10 O31  NMB A 501      12.922  24.936   3.997  1.00 15.08    -0.218  OA
HETATM   11 O40  NMB A 501      11.800  23.318   9.222  1.00 16.60    -0.182  OA
ENDROOT
BRANCH   1  12
HETATM   12 C08  NMB A 501      10.977  25.658   7.859  1.00 15.66     0.088   C
BRANCH  12  13
HETATM   13 C09  NMB A 501       9.635  26.234   8.155  1.00 14.71     0.018   A
HETATM   14 C10  NMB A 501       8.490  25.430   8.160  1.00 12.56     0.002   A
HETATM   15 C11  NMB A 501       7.241  25.988   8.432  1.00 19.25     0.000   A
HETATM   16 C12  NMB A 501       7.128  27.382   8.702  1.00 18.30     0.000   A
HETATM   17 C13  NMB A 501       8.269  28.204   8.696  1.00 14.23     0.000   A
HETATM   18 C14  NMB A 501       9.527  27.624   8.421  1.00 15.35     0.002   A
ENDBRANCH  12  13
ENDBRANCH   1  12
BRANCH   7  19
HETATM   19 C32  NMB A 501       9.782  24.338   5.248  1.00 11.25     0.175   C
BRANCH  19  20
HETATM   20 O33  NMB A 501       8.933  25.503   5.403  1.00 12.26    -0.329  OA
BRANCH  20  21
HETATM   21 C34  NMB A 501       7.684  25.496   4.897  1.00 12.57     0.094   A
HETATM   22 C35  NMB A 501       7.334  24.625   3.847  1.00 14.00     0.024   A
HETATM   23 C36  NMB A 501       6.039  24.616   3.308  1.00 14.78     0.002   A
HETATM   24 C37  NMB A 501       5.074  25.490   3.820  1.00 14.25     0.000   A
HETATM   25 C38  NMB A 501       5.414  26.367   4.864  1.00 17.66     0.002   A
HETATM   26 C39  NMB A 501       6.720  26.362   5.400  1.00 14.50     0.024   A
ENDBRANCH  20  21
ENDBRANCH  19  20
ENDBRANCH   7  19
BRANCH   3  27
HETATM   27 C23  NMB A 501      13.834  22.396   7.510  1.00 11.47     0.141   C
BRANCH  27  28
HETATM   28 C24  NMB A 501      14.390  21.477   8.564  1.00 12.93     0.001   A
HETATM   29 C25  NMB A 501      13.586  21.046   9.648  1.00 16.94    -0.002   A
HETATM   30 C26  NMB A 501      14.117  20.167  10.633  1.00 18.28    -0.000   A
HETATM   31 C27  NMB A 501      15.451  19.722  10.535  1.00 13.74    -0.000   A
HETATM   32 C28  NMB A 501      16.252  20.156   9.454  1.00 16.62    -0.000   A
HETATM   33 C29  NMB A 501      15.720  21.027   8.476  1.00 13.68    -0.002   A
ENDBRANCH  27  28
ENDBRANCH   3  27
BRANCH   4  34
HETATM   34 C41  NMB A 501      12.449  20.353   5.471  1.00 18.23     0.174   C
BRANCH  34  35
HETATM   35 O16  NMB A 501      13.717  20.393   4.776  1.00 20.72    -0.329  OA
BRANCH  35  36
HETATM   36 C17  NMB A 501      13.926  19.569   3.715  1.00 14.47     0.094   A
HETATM   37 C18  NMB A 501      14.306  18.226   3.924  1.00 11.79     0.024   A
HETATM   38 C19  NMB A 501      14.517  17.372   2.831  1.00 14.96     0.002   A
HETATM   39 C20  NMB A 501      14.337  17.865   1.519  1.00 14.23     0.000   A
HETATM   40 C21  NMB A 501      13.955  19.201   1.308  1.00 12.66     0.002   A
HETATM   41 C22  NMB A 501      13.755  20.043   2.406  1.00 11.31     0.024   A
ENDBRANCH  35  36
ENDBRANCH  34  35
ENDBRANCH   4  34
TORSDOF 10