ROOT
HETATM    1 N01  NMB A 501      12.618  23.996   6.426  1.00 15.06    -0.236   N
HETATM    2 S02  NMB A 501      12.569  25.403   5.547  1.00 12.44     0.327   S
HETATM    3 N03  NMB A 501      11.081  25.920   5.882  1.00 13.50    -0.254   N
HETATM    4 C04  NMB A 501      10.010  25.182   5.160  1.00 16.90     0.157   C
HETATM    5 C05  NMB A 501       9.467  24.038   5.996  1.00 12.70     0.208   C
HETATM    6 C06  NMB A 501      10.472  23.405   6.932  1.00 12.56     0.208   C
HETATM    7 C07  NMB A 501      11.740  22.855   6.298  1.00 11.34     0.162   C
HETATM    8 O15  NMB A 501      12.663  25.171   4.124  1.00 13.56    -0.182  OA
HETATM    9 O30  NMB A 501       8.412  24.501   6.810  1.00 13.24    -0.218  OA
HETATM   10 O31  NMB A 501       9.787  22.423   7.672  1.00 15.08    -0.218  OA
HETATM   11 O40  NMB A 501      13.478  26.324   6.144  1.00 16.60    -0.182  OA
ENDROOT
BRANCH   1  12
HETATM   12 C08  NMB A 501      13.914  23.600   6.775  1.00 15.66     0.088   C
BRANCH  12  13
HETATM   13 C09  NMB A 501      14.449  22.586   7.726  1.00 14.71     0.018   A
HETATM   14 C10  NMB A 501      13.641  21.547   8.203  1.00 12.56     0.002   A
HETATM   15 C11  NMB A 501      14.158  20.610   9.098  1.00 19.25     0.000   A
HETATM   16 C12  NMB A 501      15.510  20.711   9.533  1.00 18.30     0.000   A
HETATM   17 C13  NMB A 501      16.332  21.753   9.066  1.00 14.23     0.000   A
HETATM   18 C14  NMB A 501      15.796  22.693   8.159  1.00 15.35     0.002   A
ENDBRANCH  12  13
ENDBRANCH   1  12
BRANCH   7  19
HETATM   19 C32  NMB A 501      11.764  22.280   4.870  1.00 11.25     0.175   C
BRANCH  19  20
HETATM   20 O33  NMB A 501      13.166  22.084   4.562  1.00 12.26    -0.329  OA
BRANCH  20  21
HETATM   21 C34  NMB A 501      14.001  21.604   5.504  1.00 12.57     0.094   A
HETATM   22 C35  NMB A 501      13.671  21.684   6.871  1.00 14.00     0.024   A
HETATM   23 C36  NMB A 501      14.536  21.193   7.860  1.00 14.78     0.002   A
HETATM   24 C37  NMB A 501      15.754  20.614   7.484  1.00 14.25     0.000   A
HETATM   25 C38  NMB A 501      16.096  20.534   6.123  1.00 17.66     0.002   A
HETATM   26 C39  NMB A 501      15.213  21.028   5.138  1.00 14.50     0.024   A
ENDBRANCH  20  21
ENDBRANCH  19  20
ENDBRANCH   7  19
BRANCH   3  27
HETATM   27 C23  NMB A 501      10.867  26.685   7.130  1.00 11.47     0.141   C
BRANCH  27  28
HETATM   28 C24  NMB A 501       9.580  26.508   7.887  1.00 12.93     0.001   A
HETATM   29 C25  NMB A 501       9.020  25.219   8.075  1.00 16.94    -0.002   A
HETATM   30 C26  NMB A 501       7.808  25.060   8.803  1.00 18.28    -0.000   A
HETATM   31 C27  NMB A 501       7.155  26.189   9.340  1.00 13.74    -0.000   A
HETATM   32 C28  NMB A 501       7.713  27.473   9.149  1.00 16.62    -0.000   A
HETATM   33 C29  NMB A 501       8.919  27.626   8.427  1.00 13.68    -0.002   A
ENDBRANCH  27  28
ENDBRANCH   3  27
BRANCH   4  34
HETATM   34 C41  NMB A 501       8.884  26.116   4.682  1.00 18.23     0.174   C
BRANCH  34  35
HETATM   35 O16  NMB A 501       8.050  26.495   5.802  1.00 20.72    -0.329  OA
BRANCH  35  36
HETATM   36 C17  NMB A 501       6.838  27.065   5.573  1.00 14.47     0.094   A
HETATM   37 C18  NMB A 501       6.210  27.828   6.580  1.00 11.79     0.024   A
HETATM   38 C19  NMB A 501       4.961  28.422   6.343  1.00 14.96     0.002   A
HETATM   39 C20  NMB A 501       4.341  28.256   5.085  1.00 14.23     0.000   A
HETATM   40 C21  NMB A 501       4.965  27.501   4.078  1.00 12.66     0.002   A
HETATM   41 C22  NMB A 501       6.206  26.908   4.329  1.00 11.31     0.024   A
ENDBRANCH  35  36
ENDBRANCH  34  35
ENDBRANCH   4  34
TORSDOF 10