ROOT
HETATM    1 N01  NMB A 501      10.881  24.343   6.074  1.00 15.06    -0.236   N
HETATM    2 S02  NMB A 501      10.586  23.036   7.055  1.00 12.44     0.327   S
HETATM    3 N03  NMB A 501      12.008  22.282   6.993  1.00 13.50    -0.254   N
HETATM    4 C04  NMB A 501      12.244  21.544   5.723  1.00 16.90     0.157   C
HETATM    5 C05  NMB A 501      13.002  22.395   4.721  1.00 12.70     0.208   C
HETATM    6 C06  NMB A 501      12.732  23.880   4.820  1.00 12.56     0.208   C
HETATM    7 C07  NMB A 501      11.283  24.320   4.685  1.00 11.34     0.162   C
HETATM    8 O15  NMB A 501       9.577  22.155   6.516  1.00 13.56    -0.182  OA
HETATM    9 O30  NMB A 501      14.390  22.237   4.913  1.00 13.24    -0.218  OA
HETATM   10 O31  NMB A 501      13.562  24.516   3.877  1.00 15.08    -0.218  OA
HETATM   11 O40  NMB A 501      10.424  23.517   8.386  1.00 16.60    -0.182  OA
ENDROOT
BRANCH   1  12
HETATM   12 C08  NMB A 501      10.058  25.441   6.344  1.00 15.66     0.088   C
BRANCH  12  13
HETATM   13 C09  NMB A 501      10.035  26.455   7.435  1.00 14.71     0.018   A
HETATM   14 C10  NMB A 501       9.541  27.745   7.212  1.00 12.56     0.002   A
HETATM   15 C11  NMB A 501       9.533  28.683   8.244  1.00 19.25     0.000   A
HETATM   16 C12  NMB A 501      10.034  28.331   9.529  1.00 18.30     0.000   A
HETATM   17 C13  NMB A 501      10.540  27.040   9.768  1.00 14.23     0.000   A
HETATM   18 C14  NMB A 501      10.539  26.100   8.714  1.00 15.35     0.002   A
ENDBRANCH  12  13
ENDBRANCH   1  12
BRANCH   7  19
HETATM   19 C32  NMB A 501      10.268  23.555   3.816  1.00 11.25     0.175   C
BRANCH  19  20
HETATM   20 O33  NMB A 501       9.528  24.577   3.104  1.00 12.26    -0.329  OA
BRANCH  20  21
HETATM   21 C34  NMB A 501       8.181  24.570   3.125  1.00 12.57     0.094   A
HETATM   22 C35  NMB A 501       7.444  25.672   2.648  1.00 14.00     0.024   A
HETATM   23 C36  NMB A 501       6.042  25.677   2.672  1.00 14.78     0.002   A
HETATM   24 C37  NMB A 501       5.358  24.569   3.184  1.00 14.25     0.000   A
HETATM   25 C38  NMB A 501       6.083  23.467   3.668  1.00 17.66     0.002   A
HETATM   26 C39  NMB A 501       7.494  23.473   3.632  1.00 14.50     0.024   A
ENDBRANCH  20  21
ENDBRANCH  19  20
ENDBRANCH   7  19
BRANCH   3  27
HETATM   27 C23  NMB A 501      13.083  22.732   7.905  1.00 11.47     0.141   C
BRANCH  27  28
HETATM   28 C24  NMB A 501      14.393  21.992   7.915  1.00 12.93     0.001   A
HETATM   29 C25  NMB A 501      14.480  20.664   7.429  1.00 16.94    -0.002   A
HETATM   30 C26  NMB A 501      15.726  19.977   7.432  1.00 18.28    -0.000   A
HETATM   31 C27  NMB A 501      16.882  20.617   7.921  1.00 13.74    -0.000   A
HETATM   32 C28  NMB A 501      16.793  21.941   8.408  1.00 16.62    -0.000   A
HETATM   33 C29  NMB A 501      15.554  22.621   8.401  1.00 13.68    -0.002   A
ENDBRANCH  27  28
ENDBRANCH   3  27
BRANCH   4  34
HETATM   34 C41  NMB A 501      12.943  20.193   5.959  1.00 18.23     0.174   C
BRANCH  34  35
HETATM   35 O16  NMB A 501      14.188  20.148   5.223  1.00 20.72    -0.329  OA
BRANCH  35  36
HETATM   36 C17  NMB A 501      14.259  19.433   4.069  1.00 14.47     0.094   A
HETATM   37 C18  NMB A 501      14.130  18.028   4.097  1.00 11.79     0.024   A
HETATM   38 C19  NMB A 501      14.198  17.288   2.907  1.00 14.96     0.002   A
HETATM   39 C20  NMB A 501      14.387  17.962   1.679  1.00 14.23     0.000   A
HETATM   40 C21  NMB A 501      14.511  19.361   1.648  1.00 12.66     0.002   A
HETATM   41 C22  NMB A 501      14.449  20.086   2.842  1.00 11.31     0.024   A
ENDBRANCH  35  36
ENDBRANCH  34  35
ENDBRANCH   4  34
TORSDOF 10