ROOT
HETATM    1 N01  NMB A 501      11.075  24.375   5.807  1.00 15.06    -0.236   N
HETATM    2 S02  NMB A 501       9.701  24.052   4.934  1.00 12.44     0.327   S
HETATM    3 N03  NMB A 501       8.842  25.385   5.213  1.00 13.50    -0.254   N
HETATM    4 C04  NMB A 501       8.226  25.432   6.567  1.00 16.90     0.157   C
HETATM    5 C05  NMB A 501       9.113  26.169   7.553  1.00 12.70     0.208   C
HETATM    6 C06  NMB A 501      10.596  26.049   7.282  1.00 12.56     0.208   C
HETATM    7 C07  NMB A 501      11.167  24.641   7.225  1.00 11.34     0.162   C
HETATM    8 O15  NMB A 501       8.970  22.919   5.450  1.00 13.56    -0.182  OA
HETATM    9 O30  NMB A 501       8.820  27.548   7.520  1.00 13.24    -0.218  OA
HETATM   10 O31  NMB A 501      11.257  26.844   8.238  1.00 15.08    -0.218  OA
HETATM   11 O40  NMB A 501      10.050  24.060   3.552  1.00 16.60    -0.182  OA
ENDROOT
BRANCH   1  12
HETATM   12 C08  NMB A 501      12.203  23.686   5.349  1.00 15.66     0.088   C
BRANCH  12  13
HETATM   13 C09  NMB A 501      13.102  22.673   5.970  1.00 14.71     0.018   A
HETATM   14 C10  NMB A 501      13.963  23.018   7.018  1.00 12.56     0.002   A
HETATM   15 C11  NMB A 501      14.802  22.057   7.583  1.00 19.25     0.000   A
HETATM   16 C12  NMB A 501      14.787  20.721   7.091  1.00 18.30     0.000   A
HETATM   17 C13  NMB A 501      13.931  20.360   6.035  1.00 14.23     0.000   A
HETATM   18 C14  NMB A 501      13.086  21.343   5.474  1.00 15.35     0.002   A
ENDBRANCH  12  13
ENDBRANCH   1  12
BRANCH   7  19
HETATM   19 C32  NMB A 501      10.585  23.483   8.056  1.00 11.25     0.175   C
BRANCH  19  20
HETATM   20 O33  NMB A 501       9.764  24.115   9.069  1.00 12.26    -0.329  OA
BRANCH  20  21
HETATM   21 C34  NMB A 501       8.749  24.922   8.704  1.00 12.57     0.094   A
HETATM   22 C35  NMB A 501       8.875  26.323   8.783  1.00 14.00     0.024   A
HETATM   23 C36  NMB A 501       7.823  27.172   8.412  1.00 14.78     0.002   A
HETATM   24 C37  NMB A 501       6.620  26.620   7.958  1.00 14.25     0.000   A
HETATM   25 C38  NMB A 501       6.481  25.224   7.881  1.00 17.66     0.002   A
HETATM   26 C39  NMB A 501       7.551  24.381   8.252  1.00 14.50     0.024   A
ENDBRANCH  20  21
ENDBRANCH  19  20
ENDBRANCH   7  19
BRANCH   3  27
HETATM   27 C23  NMB A 501       9.102  26.577   4.376  1.00 11.47     0.141   C
BRANCH  27  28
HETATM   28 C24  NMB A 501       8.732  26.544   2.919  1.00 12.93     0.001   A
HETATM   29 C25  NMB A 501       8.420  25.320   2.277  1.00 16.94    -0.002   A
HETATM   30 C26  NMB A 501       8.060  25.300   0.901  1.00 18.28    -0.000   A
HETATM   31 C27  NMB A 501       8.014  26.503   0.167  1.00 13.74    -0.000   A
HETATM   32 C28  NMB A 501       8.329  27.722   0.808  1.00 16.62    -0.000   A
HETATM   33 C29  NMB A 501       8.684  27.738   2.176  1.00 13.68    -0.002   A
ENDBRANCH  27  28
ENDBRANCH   3  27
BRANCH   4  34
HETATM   34 C41  NMB A 501       6.805  26.021   6.536  1.00 18.23     0.174   C
BRANCH  34  35
HETATM   35 O16  NMB A 501       6.015  25.348   5.527  1.00 20.72    -0.329  OA
BRANCH  35  36
HETATM   36 C17  NMB A 501       6.111  25.740   4.229  1.00 14.47     0.094   A
HETATM   37 C18  NMB A 501       5.010  25.592   3.360  1.00 11.79     0.024   A
HETATM   38 C19  NMB A 501       5.104  26.001   2.022  1.00 14.96     0.002   A
HETATM   39 C20  NMB A 501       6.309  26.570   1.553  1.00 14.23     0.000   A
HETATM   40 C21  NMB A 501       7.407  26.723   2.417  1.00 12.66     0.002   A
HETATM   41 C22  NMB A 501       7.302  26.304   3.747  1.00 11.31     0.024   A
ENDBRANCH  35  36
ENDBRANCH  34  35
ENDBRANCH   4  34
TORSDOF 10