ROOT
HETATM    1  P1  NAD X   1       2.401  -4.205  -7.599  1.00 20.00     0.418   P
HETATM    2  O1  NAD X   1       2.454  -5.559  -8.283  1.00 20.00    -0.624  OA
HETATM    3  O2  NAD X   1       3.259  -3.108  -8.149  1.00 20.00    -0.624  OA
ENDROOT
BRANCH   1   4
HETATM    4  O3  NAD X   1       2.937  -4.362  -6.043  1.00 20.00    -0.268  OA
BRANCH   4   5
HETATM    5  C1  NAD X   1       3.731  -3.439  -5.251  1.00 20.00     0.187   C
BRANCH   5   6
HETATM    6  C2  NAD X   1       3.480  -2.023  -5.695  1.00 20.00     0.181   C
HETATM    7  C3  NAD X   1       4.594  -1.050  -5.246  1.00 20.00     0.216   C
HETATM    8  C4  NAD X   1       3.848   0.152  -4.642  1.00 20.00     0.234   C
HETATM    9  O5  NAD X   1       5.330  -0.692  -6.442  1.00 20.00    -0.218  OA
HETATM   10  C5  NAD X   1       2.416  -0.007  -5.216  1.00 20.00     0.241   C
HETATM   11  O6  NAD X   1       4.510   1.337  -5.013  1.00 20.00    -0.216  OA
HETATM   12  O4  NAD X   1       2.219  -1.427  -5.212  1.00 20.00    -0.331  OA
BRANCH  10  13
HETATM   13  N1  NAD X   1       1.342   0.683  -4.450  1.00 20.00    -0.270   N
HETATM   14  C6  NAD X   1       1.082   1.525  -3.384  1.00 20.00     0.182   A
HETATM   15  N2  NAD X   1      -0.199   1.775  -3.151  1.00 20.00    -0.219  NA
HETATM   16  C7  NAD X   1      -0.855   1.007  -4.109  1.00 20.00     0.155   A
HETATM   17  C8  NAD X   1      -2.191   0.863  -4.416  1.00 20.00     0.206   A
HETATM   18 C10  NAD X   1       0.070   0.348  -4.912  1.00 20.00     0.170   A
HETATM   19  N3  NAD X   1      -3.172   1.503  -3.798  1.00 20.00    -0.125   N
HETATM   20  N4  NAD X   1      -2.498   0.092  -5.447  1.00 20.00    -0.202  NA
HETATM   21  C9  NAD X   1      -1.529  -0.545  -6.100  1.00 20.00     0.202   A
HETATM   22  N5  NAD X   1      -0.224  -0.444  -5.957  1.00 20.00    -0.205  NA
ENDBRANCH  10  13
ENDBRANCH   5   6
ENDBRANCH   4   5
ENDBRANCH   1   4
BRANCH   1  23
HETATM   23  O7  NAD X   1       0.884  -4.107  -7.547  1.00 20.00    -0.180  OA
BRANCH  23  24
HETATM   24  P2  NAD X   1      -0.097  -3.144  -6.954  1.00 20.00     0.418   P
HETATM   25  O8  NAD X   1      -1.253  -3.995  -6.529  1.00 20.00    -0.624  OA
HETATM   26  O9  NAD X   1      -0.276  -1.829  -7.631  1.00 20.00    -0.624  OA
BRANCH  24  27
HETATM   27 O10  NAD X   1       0.534  -3.012  -5.482  1.00 20.00    -0.268  OA
BRANCH  27  28
HETATM   28 C11  NAD X   1       1.827  -3.488  -5.117  1.00 20.00     0.187   C
BRANCH  28  29
HETATM   29 C12  NAD X   1       1.899  -3.536  -3.585  1.00 20.00     0.181   C
HETATM   30 O11  NAD X   1       0.692  -2.953  -3.008  1.00 20.00    -0.331  OA
HETATM   31 C15  NAD X   1       0.340  -3.846  -1.954  1.00 20.00     0.239   C
HETATM   32 C14  NAD X   1       0.668  -5.217  -2.490  1.00 20.00     0.234   C
HETATM   33 C13  NAD X   1       2.004  -4.985  -3.109  1.00 20.00     0.216   C
HETATM   34 O13  NAD X   1       0.800  -6.083  -1.401  1.00 20.00    -0.216  OA
HETATM   35 O12  NAD X   1       2.976  -5.005  -2.128  1.00 20.00    -0.218  OA
BRANCH  31  36
HETATM   36  N6  NAD X   1      -1.045  -3.667  -1.555  1.00 20.00    -0.301   N
HETATM   37 C16  NAD X   1      -1.949  -3.411  -2.577  1.00 20.00     0.082   C
HETATM   38 C17  NAD X   1      -3.306  -3.281  -2.519  1.00 20.00     0.063   C
HETATM   39 C19  NAD X   1      -3.666  -3.259  -1.202  1.00 20.00     0.007   C
HETATM   40 C20  NAD X   1      -2.824  -3.380  -0.062  1.00 20.00     0.019   C
HETATM   41 C21  NAD X   1      -1.435  -3.625  -0.265  1.00 20.00     0.078   C
BRANCH  38  42
HETATM   42 C18  NAD X   1      -4.248  -2.985  -3.612  1.00 20.00     0.234   C
HETATM   43  N7  NAD X   1      -5.551  -3.213  -3.553  1.00 20.00    -0.118   N
HETATM   44 O14  NAD X   1      -3.869  -2.575  -4.829  1.00 20.00    -0.167  OA
ENDBRANCH  38  42
ENDBRANCH  31  36
ENDBRANCH  28  29
ENDBRANCH  27  28
ENDBRANCH  24  27
ENDBRANCH  23  24
ENDBRANCH   1  23
TORSDOF 11