ROOT
HETATM    1  P1  NAD X   1       4.074  -3.826  -4.171  1.00 20.00     0.418   P
HETATM    2  O1  NAD X   1       5.541  -4.200  -4.274  1.00 20.00    -0.624  OA
HETATM    3  O2  NAD X   1       3.301  -3.667  -5.443  1.00 20.00    -0.624  OA
ENDROOT
BRANCH   1   4
HETATM    4  O3  NAD X   1       3.942  -2.340  -3.459  1.00 20.00    -0.268  OA
BRANCH   4   5
HETATM    5  C1  NAD X   1       2.810  -1.757  -2.759  1.00 20.00     0.187   C
BRANCH   5   6
HETATM    6  C2  NAD X   1       2.888  -0.255  -2.803  1.00 20.00     0.181   C
HETATM    7  C3  NAD X   1       2.083   0.351  -3.976  1.00 20.00     0.216   C
HETATM    8  C4  NAD X   1       3.041   1.362  -4.630  1.00 20.00     0.234   C
HETATM    9  O5  NAD X   1       0.926   0.996  -3.387  1.00 20.00    -0.218  OA
HETATM   10  C5  NAD X   1       4.102   1.598  -3.524  1.00 20.00     0.241   C
HETATM   11  O6  NAD X   1       2.313   2.504  -5.010  1.00 20.00    -0.216  OA
HETATM   12  O4  NAD X   1       4.249   0.301  -2.932  1.00 20.00    -0.331  OA
BRANCH  10  13
HETATM   13  N1  NAD X   1       5.412   2.119  -3.999  1.00 20.00    -0.270   N
HETATM   14  C6  NAD X   1       6.745   1.806  -4.195  1.00 20.00     0.182   A
HETATM   15  N2  NAD X   1       7.503   2.791  -4.657  1.00 20.00    -0.219  NA
HETATM   16  C7  NAD X   1       6.620   3.864  -4.739  1.00 20.00     0.155   A
HETATM   17  C8  NAD X   1       6.783   5.158  -5.184  1.00 20.00     0.206   A
HETATM   18 C10  NAD X   1       5.344   3.465  -4.353  1.00 20.00     0.170   A
HETATM   19  N3  NAD X   1       7.916   5.643  -5.668  1.00 20.00    -0.125   N
HETATM   20  N4  NAD X   1       5.712   5.936  -5.197  1.00 20.00    -0.202  NA
HETATM   21  C9  NAD X   1       4.556   5.465  -4.737  1.00 20.00     0.202   A
HETATM   22  N5  NAD X   1       4.248   4.243  -4.352  1.00 20.00    -0.205  NA
ENDBRANCH  10  13
ENDBRANCH   5   6
ENDBRANCH   4   5
ENDBRANCH   1   4
BRANCH   1  23
HETATM   23  O7  NAD X   1       3.712  -4.864  -3.121  1.00 20.00    -0.180  OA
BRANCH  23  24
HETATM   24  P2  NAD X   1       2.532  -5.750  -2.867  1.00 20.00     0.418   P
HETATM   25  O8  NAD X   1       2.469  -6.648  -4.063  1.00 20.00    -0.624  OA
HETATM   26  O9  NAD X   1       1.318  -5.135  -2.262  1.00 20.00    -0.624  OA
BRANCH  24  27
HETATM   27 O10  NAD X   1       3.231  -6.835  -1.908  1.00 20.00    -0.268  OA
BRANCH  27  28
HETATM   28 C11  NAD X   1       3.396  -8.211  -2.241  1.00 20.00     0.187   C
BRANCH  28  29
HETATM   29 C12  NAD X   1       2.006  -8.860  -2.270  1.00 20.00     0.181   C
HETATM   30 O11  NAD X   1       1.578  -9.069  -3.649  1.00 20.00    -0.331  OA
HETATM   31 C15  NAD X   1       1.015 -10.379  -3.648  1.00 20.00     0.239   C
HETATM   32 C14  NAD X   1       1.892 -11.171  -2.710  1.00 20.00     0.234   C
HETATM   33 C13  NAD X   1       2.046 -10.220  -1.572  1.00 20.00     0.216   C
HETATM   34 O13  NAD X   1       1.169 -12.290  -2.291  1.00 20.00    -0.216  OA
HETATM   35 O12  NAD X   1       0.925 -10.280  -0.767  1.00 20.00    -0.218  OA
BRANCH  31  36
HETATM   36  N6  NAD X   1       0.932 -10.915  -4.996  1.00 20.00    -0.301   N
HETATM   37 C16  NAD X   1       0.258 -10.134  -5.925  1.00 20.00     0.082   C
HETATM   38 C17  NAD X   1       0.092 -10.335  -7.265  1.00 20.00     0.063   C
HETATM   39 C19  NAD X   1       0.556 -11.585  -7.559  1.00 20.00     0.007   C
HETATM   40 C20  NAD X   1       1.146 -12.530  -6.676  1.00 20.00     0.019   C
HETATM   41 C21  NAD X   1       1.366 -12.149  -5.320  1.00 20.00     0.078   C
BRANCH  38  42
HETATM   42 C18  NAD X   1      -0.648  -9.506  -8.232  1.00 20.00     0.234   C
HETATM   43  N7  NAD X   1      -0.216  -8.346  -8.701  1.00 20.00    -0.118   N
HETATM   44 O14  NAD X   1      -1.894  -9.775  -8.641  1.00 20.00    -0.167  OA
ENDBRANCH  38  42
ENDBRANCH  31  36
ENDBRANCH  28  29
ENDBRANCH  27  28
ENDBRANCH  24  27
ENDBRANCH  23  24
ENDBRANCH   1  23
TORSDOF 11