ROOT
HETATM    1  P1  NAD X   1      -6.017  -6.307   0.133  1.00 20.00     0.418   P
HETATM    2  O1  NAD X   1      -7.260  -6.511   0.979  1.00 20.00    -0.624  OA
HETATM    3  O2  NAD X   1      -5.517  -7.468  -0.670  1.00 20.00    -0.624  OA
ENDROOT
BRANCH   1   4
HETATM    4  O3  NAD X   1      -4.740  -5.952   1.121  1.00 20.00    -0.268  OA
BRANCH   4   5
HETATM    5  C1  NAD X   1      -4.115  -4.668   1.386  1.00 20.00     0.187   C
BRANCH   5   6
HETATM    6  C2  NAD X   1      -4.188  -3.792   0.164  1.00 20.00     0.181   C
HETATM    7  C3  NAD X   1      -5.011  -4.429  -0.979  1.00 20.00     0.216   C
HETATM    8  C4  NAD X   1      -4.139  -4.257  -2.235  1.00 20.00     0.234   C
HETATM    9  O5  NAD X   1      -6.246  -3.676  -1.062  1.00 20.00    -0.218  OA
HETATM   10  C5  NAD X   1      -3.145  -3.143  -1.815  1.00 20.00     0.241   C
HETATM   11  O6  NAD X   1      -4.967  -3.935  -3.327  1.00 20.00    -0.216  OA
HETATM   12  O4  NAD X   1      -2.887  -3.440  -0.437  1.00 20.00    -0.331  OA
BRANCH  10  13
HETATM   13  N1  NAD X   1      -1.879  -3.090  -2.596  1.00 20.00    -0.270   N
HETATM   14  C6  NAD X   1      -0.639  -2.487  -2.689  1.00 20.00     0.182   A
HETATM   15  N2  NAD X   1       0.107  -2.866  -3.719  1.00 20.00    -0.219  NA
HETATM   16  C7  NAD X   1      -0.715  -3.764  -4.396  1.00 20.00     0.155   A
HETATM   17  C8  NAD X   1      -0.508  -4.533  -5.521  1.00 20.00     0.206   A
HETATM   18 C10  NAD X   1      -1.920  -3.917  -3.717  1.00 20.00     0.170   A
HETATM   19  N3  NAD X   1       0.622  -4.558  -6.209  1.00 20.00    -0.125   N
HETATM   20  N4  NAD X   1      -1.481  -5.352  -5.884  1.00 20.00    -0.202  NA
HETATM   21  C9  NAD X   1      -2.620  -5.362  -5.195  1.00 20.00     0.202   A
HETATM   22  N5  NAD X   1      -2.921  -4.739  -4.075  1.00 20.00    -0.205  NA
ENDBRANCH  10  13
ENDBRANCH   5   6
ENDBRANCH   4   5
ENDBRANCH   1   4
BRANCH   1  23
HETATM   23  O7  NAD X   1      -6.467  -5.004  -0.509  1.00 20.00    -0.180  OA
BRANCH  23  24
HETATM   24  P2  NAD X   1      -7.721  -4.525  -1.172  1.00 20.00     0.418   P
HETATM   25  O8  NAD X   1      -7.719  -5.192  -2.512  1.00 20.00    -0.624  OA
HETATM   26  O9  NAD X   1      -8.102  -3.097  -0.989  1.00 20.00    -0.624  OA
BRANCH  24  27
HETATM   27 O10  NAD X   1      -8.767  -5.546  -0.504  1.00 20.00    -0.268  OA
BRANCH  27  28
HETATM   28 C11  NAD X   1      -9.985  -5.961  -1.117  1.00 20.00     0.187   C
BRANCH  28  29
HETATM   29 C12  NAD X   1      -9.696  -7.230  -1.931  1.00 20.00     0.181   C
HETATM   30 O11  NAD X   1      -8.314  -7.652  -1.729  1.00 20.00    -0.331  OA
HETATM   31 C15  NAD X   1      -8.398  -9.065  -1.562  1.00 20.00     0.239   C
HETATM   32 C14  NAD X   1      -9.666  -9.281  -0.775  1.00 20.00     0.234   C
HETATM   33 C13  NAD X   1     -10.612  -8.366  -1.476  1.00 20.00     0.216   C
HETATM   34 O13  NAD X   1     -10.068 -10.606  -0.966  1.00 20.00    -0.216  OA
HETATM   35 O12  NAD X   1     -11.078  -8.976  -2.624  1.00 20.00    -0.218  OA
BRANCH  31  36
HETATM   36  N6  NAD X   1      -7.199  -9.591  -0.934  1.00 20.00    -0.301   N
HETATM   37 C16  NAD X   1      -6.286 -10.210  -1.777  1.00 20.00     0.082   C
HETATM   38 C17  NAD X   1      -5.053 -10.719  -1.493  1.00 20.00     0.063   C
HETATM   39 C19  NAD X   1      -4.897 -10.698  -0.136  1.00 20.00     0.007   C
HETATM   40 C20  NAD X   1      -5.807 -10.213   0.842  1.00 20.00     0.019   C
HETATM   41 C21  NAD X   1      -7.016  -9.601   0.402  1.00 20.00     0.078   C
BRANCH  38  42
HETATM   42 C18  NAD X   1      -4.107 -11.395  -2.398  1.00 20.00     0.234   C
HETATM   43  N7  NAD X   1      -3.855 -11.004  -3.637  1.00 20.00    -0.118   N
HETATM   44 O14  NAD X   1      -3.500 -12.552  -2.109  1.00 20.00    -0.167  OA
ENDBRANCH  38  42
ENDBRANCH  31  36
ENDBRANCH  28  29
ENDBRANCH  27  28
ENDBRANCH  24  27
ENDBRANCH  23  24
ENDBRANCH   1  23
TORSDOF 11