ROOT
HETATM    1  P1  NAD X   1       4.216  -2.295  -2.918  1.00 20.00     0.418   P
HETATM    2  O1  NAD X   1       5.322  -1.744  -2.037  1.00 20.00    -0.624  OA
HETATM    3  O2  NAD X   1       3.962  -1.618  -4.229  1.00 20.00    -0.624  OA
ENDROOT
BRANCH   1   4
HETATM    4  O3  NAD X   1       2.770  -2.148  -2.130  1.00 20.00    -0.268  OA
BRANCH   4   5
HETATM    5  C1  NAD X   1       1.499  -1.657  -2.633  1.00 20.00     0.187   C
BRANCH   5   6
HETATM    6  C2  NAD X   1       1.606  -1.341  -4.100  1.00 20.00     0.181   C
HETATM    7  C3  NAD X   1       1.790  -2.604  -4.972  1.00 20.00     0.216   C
HETATM    8  C4  NAD X   1       2.955  -2.264  -5.918  1.00 20.00     0.234   C
HETATM    9  O5  NAD X   1       0.543  -2.793  -5.685  1.00 20.00    -0.218  OA
HETATM   10  C5  NAD X   1       3.018  -0.716  -5.844  1.00 20.00     0.241   C
HETATM   11  O6  NAD X   1       2.677  -2.788  -7.194  1.00 20.00    -0.216  OA
HETATM   12  O4  NAD X   1       2.717  -0.443  -4.470  1.00 20.00    -0.331  OA
BRANCH  10  13
HETATM   13  N1  NAD X   1       4.320  -0.112  -6.236  1.00 20.00    -0.270   N
HETATM   14  C6  NAD X   1       4.955   1.065  -6.587  1.00 20.00     0.182   A
HETATM   15  N2  NAD X   1       6.242   0.954  -6.889  1.00 20.00    -0.219  NA
HETATM   16  C7  NAD X   1       6.481  -0.413  -6.775  1.00 20.00     0.155   A
HETATM   17  C8  NAD X   1       7.630  -1.161  -6.920  1.00 20.00     0.206   A
HETATM   18 C10  NAD X   1       5.324  -1.069  -6.367  1.00 20.00     0.170   A
HETATM   19  N3  NAD X   1       8.818  -0.655  -7.210  1.00 20.00    -0.125   N
HETATM   20  N4  NAD X   1       7.543  -2.459  -6.675  1.00 20.00    -0.202  NA
HETATM   21  C9  NAD X   1       6.364  -2.989  -6.359  1.00 20.00     0.202   A
HETATM   22  N5  NAD X   1       5.218  -2.387  -6.122  1.00 20.00    -0.205  NA
ENDBRANCH  10  13
ENDBRANCH   5   6
ENDBRANCH   4   5
ENDBRANCH   1   4
BRANCH   1  23
HETATM   23  O7  NAD X   1       4.638  -3.753  -2.821  1.00 20.00    -0.180  OA
BRANCH  23  24
HETATM   24  P2  NAD X   1       5.943  -4.473  -2.684  1.00 20.00     0.418   P
HETATM   25  O8  NAD X   1       6.200  -4.513  -1.209  1.00 20.00    -0.624  OA
HETATM   26  O9  NAD X   1       7.012  -4.169  -3.675  1.00 20.00    -0.624  OA
BRANCH  24  27
HETATM   27 O10  NAD X   1       5.409  -5.986  -2.778  1.00 20.00    -0.268  OA
BRANCH  27  28
HETATM   28 C11  NAD X   1       4.085  -6.347  -3.162  1.00 20.00     0.187   C
BRANCH  28  29
HETATM   29 C12  NAD X   1       3.957  -6.134  -4.676  1.00 20.00     0.181   C
HETATM   30 O11  NAD X   1       5.275  -5.929  -5.267  1.00 20.00    -0.331  OA
HETATM   31 C15  NAD X   1       5.255  -6.718  -6.455  1.00 20.00     0.239   C
HETATM   32 C14  NAD X   1       4.475  -7.953  -6.079  1.00 20.00     0.234   C
HETATM   33 C13  NAD X   1       3.328  -7.366  -5.329  1.00 20.00     0.216   C
HETATM   34 O13  NAD X   1       4.012  -8.542  -7.258  1.00 20.00    -0.216  OA
HETATM   35 O12  NAD X   1       2.385  -6.898  -6.222  1.00 20.00    -0.218  OA
BRANCH  31  36
HETATM   36  N6  NAD X   1       6.601  -6.975  -6.937  1.00 20.00    -0.301   N
HETATM   37 C16  NAD X   1       7.417  -7.728  -6.104  1.00 20.00     0.082   C
HETATM   38 C17  NAD X   1       8.682  -8.191  -6.321  1.00 20.00     0.063   C
HETATM   39 C19  NAD X   1       9.140  -7.625  -7.476  1.00 20.00     0.007   C
HETATM   40 C20  NAD X   1       8.452  -6.738  -8.349  1.00 20.00     0.019   C
HETATM   41 C21  NAD X   1       7.091  -6.423  -8.064  1.00 20.00     0.078   C
BRANCH  38  42
HETATM   42 C18  NAD X   1       9.544  -8.969  -5.414  1.00 20.00     0.234   C
HETATM   43  N7  NAD X   1      10.118  -8.475  -4.329  1.00 20.00    -0.118   N
HETATM   44 O14  NAD X   1       9.943 -10.222  -5.662  1.00 20.00    -0.167  OA
ENDBRANCH  38  42
ENDBRANCH  31  36
ENDBRANCH  28  29
ENDBRANCH  27  28
ENDBRANCH  24  27
ENDBRANCH  23  24
ENDBRANCH   1  23
TORSDOF 11