ROOT
HETATM    1 N01  NMB A 501      14.765  20.375   3.718  1.00 15.06    -0.236   N
HETATM    2 S02  NMB A 501      15.683  19.213   2.968  1.00 12.44     0.327   S
HETATM    3 N03  NMB A 501      16.512  18.625   4.217  1.00 13.50    -0.254   N
HETATM    4 C04  NMB A 501      17.619  19.507   4.674  1.00 16.90     0.157   C
HETATM    5 C05  NMB A 501      17.170  20.421   5.800  1.00 12.70     0.208   C
HETATM    6 C06  NMB A 501      15.713  20.821   5.746  1.00 12.56     0.208   C
HETATM    7 C07  NMB A 501      15.242  21.510   4.476  1.00 11.34     0.162   C
HETATM    8 O15  NMB A 501      16.618  19.773   2.021  1.00 13.56    -0.182  OA
HETATM    9 O30  NMB A 501      17.354  19.775   7.040  1.00 13.24    -0.218  OA
HETATM   10 O31  NMB A 501      15.455  21.600   6.891  1.00 15.08    -0.218  OA
HETATM   11 O40  NMB A 501      14.806  18.182   2.524  1.00 16.60    -0.182  OA
ENDROOT
BRANCH   1  12
HETATM   12 C08  NMB A 501      13.585  20.684   3.033  1.00 15.66     0.088   C
BRANCH  12  13
HETATM   13 C09  NMB A 501      13.307  21.201   1.664  1.00 14.71     0.018   A
HETATM   14 C10  NMB A 501      13.713  20.490   0.529  1.00 12.56     0.002   A
HETATM   15 C11  NMB A 501      13.449  20.993  -0.746  1.00 19.25     0.000   A
HETATM   16 C12  NMB A 501      12.769  22.235  -0.895  1.00 18.30     0.000   A
HETATM   17 C13  NMB A 501      12.360  22.963   0.237  1.00 14.23     0.000   A
HETATM   18 C14  NMB A 501      12.631  22.441   1.521  1.00 15.35     0.002   A
ENDBRANCH  12  13
ENDBRANCH   1  12
BRANCH   7  19
HETATM   19 C32  NMB A 501      16.169  22.404   3.632  1.00 11.25     0.175   C
BRANCH  19  20
HETATM   20 O33  NMB A 501      15.551  22.464   2.322  1.00 12.26    -0.329  OA
BRANCH  20  21
HETATM   21 C34  NMB A 501      14.504  23.286   2.110  1.00 12.57     0.094   A
HETATM   22 C35  NMB A 501      13.370  23.242   2.944  1.00 14.00     0.024   A
HETATM   23 C36  NMB A 501      12.273  24.087   2.728  1.00 14.78     0.002   A
HETATM   24 C37  NMB A 501      12.299  24.991   1.659  1.00 14.25     0.000   A
HETATM   25 C38  NMB A 501      13.423  25.039   0.817  1.00 17.66     0.002   A
HETATM   26 C39  NMB A 501      14.524  24.186   1.051  1.00 14.50     0.024   A
ENDBRANCH  20  21
ENDBRANCH  19  20
ENDBRANCH   7  19
BRANCH   3  27
HETATM   27 C23  NMB A 501      15.874  17.588   5.058  1.00 11.47     0.141   C
BRANCH  27  28
HETATM   28 C24  NMB A 501      14.498  17.098   4.699  1.00 12.93     0.001   A
HETATM   29 C25  NMB A 501      14.295  15.772   4.242  1.00 16.94    -0.002   A
HETATM   30 C26  NMB A 501      12.988  15.315   3.917  1.00 18.28    -0.000   A
HETATM   31 C27  NMB A 501      11.885  16.183   4.047  1.00 13.74    -0.000   A
HETATM   32 C28  NMB A 501      12.089  17.506   4.501  1.00 16.62    -0.000   A
HETATM   33 C29  NMB A 501      13.390  17.956   4.825  1.00 13.68    -0.002   A
ENDBRANCH  27  28
ENDBRANCH   3  27
BRANCH   4  34
HETATM   34 C41  NMB A 501      18.874  18.706   5.064  1.00 18.23     0.174   C
BRANCH  34  35
HETATM   35 O16  NMB A 501      20.052  19.534   4.914  1.00 20.72    -0.329  OA
BRANCH  35  36
HETATM   36 C17  NMB A 501      20.602  20.121   6.010  1.00 14.47     0.094   A
HETATM   37 C18  NMB A 501      20.890  21.502   6.005  1.00 11.79     0.024   A
HETATM   38 C19  NMB A 501      21.452  22.112   7.137  1.00 14.96     0.002   A
HETATM   39 C20  NMB A 501      21.720  21.333   8.284  1.00 14.23     0.000   A
HETATM   40 C21  NMB A 501      21.431  19.958   8.294  1.00 12.66     0.002   A
HETATM   41 C22  NMB A 501      20.877  19.361   7.157  1.00 11.31     0.024   A
ENDBRANCH  35  36
ENDBRANCH  34  35
ENDBRANCH   4  34
TORSDOF 10