ROOT
HETATM    1   C  1ZK A 100      13.098  -2.870  16.361  1.00 12.71     0.283   C
HETATM    2   O  1ZK A 100      12.218  -2.594  17.165  1.00 12.61    -0.268  OA
HETATM    3   N  1ZK A 100      14.057  -3.752  16.596  1.00  6.61    -0.228  NA
ENDROOT
BRANCH   1   4
HETATM    4  CA  1ZK A 100      12.930  -2.259  14.993  1.00 15.16     0.238   C
BRANCH   4   5
HETATM    5  O1  1ZK A 100      14.037  -1.503  14.629  1.00 18.48    -0.321  OA
BRANCH   5   6
HETATM    6  C1  1ZK A 100      14.972  -1.037  15.488  1.00 25.21     0.095   A
HETATM    7  C2  1ZK A 100      15.793  -1.908  16.126  1.00 27.20     0.024   A
HETATM    8  C3  1ZK A 100      16.793  -1.449  17.008  1.00 34.05     0.002   A
HETATM    9  C4  1ZK A 100      16.956  -0.122  17.250  1.00 32.00     0.000   A
HETATM   10 C4A  1ZK A 100      16.098   0.821  16.673  1.00 27.03     0.002   A
HETATM   11  C5  1ZK A 100      16.272   2.203  16.921  1.00 26.93     0.000   A
HETATM   12 C1A  1ZK A 100      15.074   0.346  15.760  1.00 24.79     0.022   A
HETATM   13  C6  1ZK A 100      15.430   3.073  16.297  1.00 23.82     0.000   A
HETATM   14  C7  1ZK A 100      14.425   2.622  15.420  1.00 23.84     0.000   A
HETATM   15  C8  1ZK A 100      14.263   1.306  15.141  1.00 25.31     0.002   A
ENDBRANCH   5   6
ENDBRANCH   4   5
ENDBRANCH   1   4
BRANCH   3  16
HETATM   16 CA1  1ZK A 100      14.367  -4.369  17.857  1.00  6.15     0.192   C
BRANCH  16  17
HETATM   17  C9  1ZK A 100      13.554  -5.660  17.940  1.00  7.86     0.274   C
HETATM   18  O2  1ZK A 100      13.834  -6.603  18.658  1.00  8.38    -0.268  OA
HETATM   19  N1  1ZK A 100      12.358  -5.565  17.327  1.00  3.75    -0.236  NA
BRANCH  19  20
HETATM   20 CA2  1ZK A 100      11.316  -6.552  17.324  1.00 10.02     0.139   C
BRANCH  20  21
HETATM   21 CB1  1ZK A 100      11.846  -7.804  18.018  1.00  7.62     0.027   C
BRANCH  21  22
HETATM   22 CG1  1ZK A 100      10.732  -8.656  18.701  1.00 17.70     0.002   C
HETATM   23 CD1  1ZK A 100       9.685  -7.710  19.406  1.00 14.76     0.000   C
HETATM   24 CE1  1ZK A 100       8.578  -8.664  19.933  1.00 17.02     0.000   C
HETATM   25  CZ  1ZK A 100       9.136  -9.536  21.044  1.00 11.12     0.000   C
HETATM   26 CE2  1ZK A 100      10.258 -10.426  20.503  1.00 20.11     0.000   C
HETATM   27 CD2  1ZK A 100      11.324  -9.629  19.710  1.00 14.43     0.000   C
ENDBRANCH  21  22
ENDBRANCH  20  21
BRANCH  20  28
HETATM   28  CH  1ZK A 100       9.979  -6.101  17.871  1.00 11.91     0.205   C
HETATM   29  OH  1ZK A 100       9.095  -7.021  18.474  1.00 10.88    -0.219  OA
BRANCH  28  30
HETATM   30 CB1  1ZK A 100      10.185  -5.012  18.966  1.00 11.04     0.193   C
HETATM   31 OB1  1ZK A 100       9.820  -5.522  20.166  1.00  8.83    -0.220  OA
BRANCH  30  32
HETATM   32 CA'  1ZK A 100       9.675  -3.583  18.703  1.00  8.33     0.114   C
BRANCH  32  33
HETATM   33 CB'  1ZK A 100      10.751  -2.526  18.795  1.00  8.24     0.011   C
HETATM   34 CG1  1ZK A 100      10.221  -1.096  19.132  1.00  6.84     0.001   C
HETATM   35 CG2  1ZK A 100      11.865  -2.950  19.810  1.00  8.75     0.001   C
ENDBRANCH  32  33
BRANCH  32  36
HETATM   36  CC  1ZK A 100       8.915  -3.563  17.383  1.00 13.69     0.254   C
HETATM   37  O3  1ZK A 100       7.872  -2.900  17.266  1.00 14.57    -0.270  OA
HETATM   38  N2  1ZK A 100       9.463  -4.223  16.354  1.00 12.09    -0.230  NA
BRANCH  38  39
HETATM   39 CA3  1ZK A 100       8.857  -4.368  15.049  1.00 12.53     0.186   C
BRANCH  39  40
HETATM   40  CD  1ZK A 100      10.084  -4.777  14.167  1.00 16.41     0.274   C
HETATM   41  O4  1ZK A 100      10.747  -5.767  14.438  1.00 14.30    -0.268  OA
HETATM   42  N3  1ZK A 100      10.352  -4.115  13.074  1.00 13.17    -0.230  NA
BRANCH  42  43
HETATM   43  CM  1ZK A 100      11.421  -4.244  12.156  1.00 14.93     0.174   C
BRANCH  43  44
HETATM   44 C21  1ZK A 100      11.789  -2.937  11.548  1.00 16.85     0.084   A
HETATM   45 C31  1ZK A 100      12.336  -1.992  12.416  1.00 21.56     0.017   A
HETATM   46 C41  1ZK A 100      12.711  -0.731  11.971  1.00 22.17     0.003   A
HETATM   47 C51  1ZK A 100      12.536  -0.472  10.612  1.00 25.30     0.021   A
HETATM   48 C61  1ZK A 100      11.999  -1.445   9.768  1.00 21.78     0.099   A
HETATM   49 N11  1ZK A 100      11.626  -2.658  10.232  1.00 23.99    -0.246  NA
ENDBRANCH  43  44
ENDBRANCH  42  43
ENDBRANCH  39  40
BRANCH  39  50
HETATM   50 CB2  1ZK A 100       8.168  -3.189  14.430  1.00 14.99     0.032   C
HETATM   51 CG2  1ZK A 100       7.912  -3.465  12.938  1.00 15.59     0.003   C
BRANCH  50  52
HETATM   52 CG1  1ZK A 100       6.801  -2.695  14.982  1.00 15.83     0.002   C
HETATM   53 CD1  1ZK A 100       5.903  -3.883  15.192  1.00 11.65     0.000   C
ENDBRANCH  50  52
ENDBRANCH  39  50
ENDBRANCH  38  39
ENDBRANCH  32  36
ENDBRANCH  30  32
ENDBRANCH  28  30
ENDBRANCH  20  28
ENDBRANCH  19  20
ENDBRANCH  16  17
BRANCH  16  54
HETATM   54  CB  1ZK A 100      14.155  -3.546  19.092  1.00  8.10     0.082   C
BRANCH  54  55
HETATM   55  CG  1ZK A 100      15.425  -3.665  19.899  1.00 12.40     0.082   A
HETATM   56 ND1  1ZK A 100      15.645  -4.903  20.526  1.00 12.67    -0.227  NA
HETATM   57 CE1  1ZK A 100      16.782  -4.832  21.212  1.00 12.42     0.199   A
HETATM   58 NE2  1ZK A 100      17.351  -3.638  21.004  1.00 14.51    -0.221  NA
HETATM   59 CD2  1ZK A 100      16.455  -2.862  20.204  1.00 10.26     0.116   A
ENDBRANCH  54  55
ENDBRANCH  16  54
ENDBRANCH   3  16
TORSDOF 21