ROOT
HETATM    1 N01  AH1 A 500      10.390  18.247   1.371  1.00 19.81    -0.295   N
HETATM    2 C02  AH1 A 500      11.147  18.117   0.180  1.00 20.51     0.324   C
HETATM    3 N03  AH1 A 500      10.654  17.514  -0.911  1.00 19.11    -0.295   N
HETATM    4 C04  AH1 A 500       9.233  17.562  -1.308  1.00 20.96     0.149   C
HETATM    5 C05  AH1 A 500       8.342  16.608  -0.392  1.00 18.24     0.207   C
HETATM    6 C06  AH1 A 500       8.184  17.122   1.069  1.00 18.09     0.207   C
HETATM    7 C07  AH1 A 500       9.500  17.163   1.895  1.00 19.29     0.149   C
HETATM    8 O15  AH1 A 500      12.323  18.575   0.134  1.00 17.64    -0.247  OA
HETATM    9 O31  AH1 A 500       7.078  16.580  -0.926  1.00 14.56    -0.218  OA
HETATM   10 O32  AH1 A 500       7.319  16.251   1.705  1.00 21.72    -0.218  OA
ENDROOT
BRANCH   1  11
HETATM   11 C08  AH1 A 500      10.925  19.118   2.444  1.00 19.69     0.133   C
BRANCH  11  12
HETATM   12 C09  AH1 A 500      12.239  19.761   2.193  1.00 19.77     0.000   A
HETATM   13 C10  AH1 A 500      12.862  19.630   0.957  1.00 19.95    -0.002   A
HETATM   14 C11  AH1 A 500      14.112  20.211   0.734  1.00 22.27    -0.000   A
HETATM   15 C12  AH1 A 500      14.764  20.928   1.751  1.00 18.67    -0.000   A
HETATM   16 C13  AH1 A 500      14.128  21.048   2.970  1.00 19.27    -0.000   A
HETATM   17 C14  AH1 A 500      12.854  20.458   3.182  1.00 17.22    -0.002   A
ENDBRANCH  11  12
ENDBRANCH   1  11
BRANCH   7  18
HETATM   18 C33  AH1 A 500      10.264  15.804   1.768  1.00 19.18     0.174   C
BRANCH  18  19
HETATM   19 O34  AH1 A 500      11.740  15.846   1.697  1.00 22.93    -0.329  OA
BRANCH  19  20
HETATM   20 C35  AH1 A 500      12.475  15.216   0.728  1.00 22.24     0.094   A
HETATM   21 C36  AH1 A 500      11.861  14.356  -0.191  1.00 23.26     0.024   A
HETATM   22 C37  AH1 A 500      12.610  13.713  -1.214  1.00 26.71     0.002   A
HETATM   23 C38  AH1 A 500      14.003  13.919  -1.324  1.00 26.63     0.000   A
HETATM   24 C39  AH1 A 500      14.628  14.776  -0.386  1.00 26.74     0.002   A
HETATM   25 C40  AH1 A 500      13.845  15.423   0.635  1.00 23.99     0.024   A
ENDBRANCH  19  20
ENDBRANCH  18  19
ENDBRANCH   7  18
BRANCH   3  26
HETATM   26 C16  AH1 A 500      11.502  17.189  -2.003  1.00 18.94     0.133   C
BRANCH  26  27
HETATM   27 C17  AH1 A 500      10.948  16.645  -3.309  1.00 21.20     0.000   A
HETATM   28 C18  AH1 A 500      11.043  15.261  -3.635  1.00 19.23    -0.002   A
HETATM   29 C19  AH1 A 500      10.462  14.804  -4.825  1.00 22.81    -0.000   A
HETATM   30 C20  AH1 A 500       9.794  15.663  -5.701  1.00 19.48    -0.000   A
HETATM   31 C21  AH1 A 500       9.702  17.028  -5.408  1.00 21.62    -0.000   A
HETATM   32 C22  AH1 A 500      10.270  17.534  -4.213  1.00 19.56    -0.002   A
ENDBRANCH  26  27
ENDBRANCH   3  26
BRANCH   4  33
HETATM   33 C23  AH1 A 500       8.743  18.964  -1.126  1.00 19.82     0.174   C
BRANCH  33  34
HETATM   34 O24  AH1 A 500       8.095  19.697  -2.217  1.00 22.97    -0.329  OA
BRANCH  34  35
HETATM   35 C25  AH1 A 500       8.676  20.557  -3.008  1.00 22.46     0.094   A
HETATM   36 C26  AH1 A 500       9.682  20.126  -3.928  1.00 26.14     0.024   A
HETATM   37 C27  AH1 A 500      10.314  21.091  -4.756  1.00 25.90     0.002   A
HETATM   38 C28  AH1 A 500       9.935  22.468  -4.668  1.00 25.42     0.000   A
HETATM   39 C29  AH1 A 500       8.927  22.895  -3.771  1.00 25.26     0.002   A
HETATM   40 C30  AH1 A 500       8.306  21.940  -2.942  1.00 24.88     0.024   A
ENDBRANCH  34  35
ENDBRANCH  33  34
ENDBRANCH   4  33
TORSDOF 10