ROOT
HETATM    1  C1  KNI B 900       0.834   7.368   6.894  1.00 31.81     0.099   A
HETATM    2  C2  KNI B 900      -0.166   7.177   7.829  1.00 31.46     0.023   A
HETATM    3  C3  KNI B 900      -1.504   7.451   7.490  1.00 30.02     0.025   A
HETATM    4  C4  KNI B 900      -1.730   7.904   6.214  1.00 31.19     0.021   A
HETATM    5  C5  KNI B 900      -0.616   8.061   5.326  1.00 31.22     0.099   A
HETATM    6  C6  KNI B 900      -2.571   7.267   8.430  1.00 28.81     0.095   A
HETATM    7  C7  KNI B 900      -3.860   7.569   8.002  1.00 29.66     0.024   A
HETATM    8  C8  KNI B 900      -4.095   8.024   6.725  1.00 32.04     0.002   A
HETATM    9  C9  KNI B 900      -3.059   8.202   5.809  1.00 32.83     0.002   A
HETATM   10  N1  KNI B 900       0.648   7.802   5.665  1.00 32.44    -0.242  NA
ENDROOT
BRANCH   6  11
HETATM   11  O1  KNI B 900      -2.282   6.813   9.712  1.00 25.21    -0.321  OA
BRANCH  11  12
HETATM   12 C10  KNI B 900      -2.278   7.805  10.701  1.00 22.94     0.236   C
BRANCH  12  13
HETATM   13 C11  KNI B 900      -0.907   7.908  11.255  1.00 20.49     0.262   C
HETATM   14  O3  KNI B 900      -0.096   8.686  10.787  1.00 22.09    -0.270  OA
HETATM   15  N2  KNI B 900      -0.641   7.131  12.290  1.00 21.41    -0.336   N
HETATM   16 HN2  KNI B 900      -1.340   6.539  12.686  1.00 15.00     0.164  HD
BRANCH  15  17
HETATM   17 C26  KNI B 900       0.717   7.060  12.804  1.00 22.03     0.170   C
BRANCH  17  18
HETATM   18 C12  KNI B 900       0.724   6.643  14.255  1.00 24.82     0.089   C
BRANCH  18  19
HETATM   19  S1  KNI B 900       0.595   8.186  15.200  1.00 31.66    -0.137  SA
HETATM   20 C27  KNI B 900       0.091   9.225  13.784  1.00 28.64     0.069   C
ENDBRANCH  18  19
ENDBRANCH  17  18
BRANCH  17  21
HETATM   21 C13  KNI B 900       1.535   6.119  11.954  1.00 19.38     0.252   C
HETATM   22  O6  KNI B 900       2.480   6.518  11.292  1.00 19.61    -0.271  OA
HETATM   23  N3  KNI B 900       1.174   4.839  12.015  1.00 17.23    -0.342   N
HETATM   24 HN3  KNI B 900       0.382   4.557  12.561  1.00 15.00     0.163  HD
BRANCH  23  25
HETATM   25 C14  KNI B 900       1.928   3.795  11.312  1.00 18.12     0.120   C
BRANCH  25  26
HETATM   26 C15  KNI B 900       1.054   2.543  11.159  1.00 17.64     0.210   C
BRANCH  26  27
HETATM   27 C17  KNI B 900       0.100   2.387  12.341  1.00 19.01     0.263   C
HETATM   28  O4  KNI B 900       0.512   2.554  13.485  1.00 17.77    -0.270  OA
HETATM   29  N4  KNI B 900      -1.161   2.048  12.007  1.00 20.71    -0.301   N
HETATM   30 C20  KNI B 900      -1.588   1.898  10.612  1.00 20.81     0.164   C
HETATM   31 C18  KNI B 900      -2.120   1.677  13.060  1.00 19.84     0.174   C
HETATM   32  S2  KNI B 900      -3.269   1.217  10.682  1.00 25.22    -0.114  SA
HETATM   33 C19  KNI B 900      -3.516   1.519  12.460  1.00 18.96     0.091   C
BRANCH  31  34
HETATM   34 C21  KNI B 900      -1.645   0.397  13.679  1.00 19.96     0.252   C
HETATM   35  O5  KNI B 900      -2.015  -0.685  13.238  1.00 21.99    -0.271  OA
HETATM   36  N5  KNI B 900      -0.817   0.538  14.707  1.00 16.49    -0.347   N
HETATM   37 HN5  KNI B 900      -0.628   1.467  15.037  1.00 15.00     0.163  HD
BRANCH  36  38
HETATM   38 C22  KNI B 900      -0.097  -0.592  15.308  1.00 17.46     0.064   C
HETATM   39 C23  KNI B 900      -0.739  -1.043  16.625  1.00 17.61     0.022   C
HETATM   40 C24  KNI B 900       1.377  -0.241  15.525  1.00 18.08     0.022   C
HETATM   41 C25  KNI B 900      -0.213  -1.759  14.335  1.00 17.58     0.022   C
ENDBRANCH  36  38
ENDBRANCH  31  34
ENDBRANCH  26  27
BRANCH  26  42
HETATM   42  O2  KNI B 900       0.290   2.717  10.018  1.00 17.78    -0.375  OA
HETATM   43 HO2  KNI B 900      -0.581   2.878  10.411  1.00 15.00     0.211  HD
ENDBRANCH  26  42
ENDBRANCH  25  26
BRANCH  25  44
HETATM   44 C16  KNI B 900       3.264   3.548  12.032  1.00 17.12     0.051   C
BRANCH  44  45
HETATM   45 C28  KNI B 900       3.864   2.198  11.694  1.00 19.72    -0.020   A
HETATM   46 C29  KNI B 900       4.003   1.786  10.384  1.00 20.68    -0.004   A
HETATM   47 C30  KNI B 900       4.552   0.547  10.098  1.00 21.38    -0.000   A
HETATM   48 C31  KNI B 900       4.958  -0.297  11.105  1.00 20.30    -0.000   A
HETATM   49 C32  KNI B 900       4.820   0.113  12.402  1.00 20.29    -0.000   A
HETATM   50 C33  KNI B 900       4.281   1.348  12.698  1.00 20.35    -0.004   A
ENDBRANCH  44  45
ENDBRANCH  25  44
ENDBRANCH  23  25
ENDBRANCH  17  21
ENDBRANCH  15  17
ENDBRANCH  12  13
ENDBRANCH  11  12
ENDBRANCH   6  11
TORSDOF 15