ROOT
HETATM    1  P1  NAD X   1      10.550   7.104   9.695  1.00 20.00     0.418   P
HETATM    2  O1  NAD X   1      10.109   5.828   9.002  1.00 20.00    -0.624  OA
HETATM    3  O2  NAD X   1      11.755   7.812   9.158  1.00 20.00    -0.624  OA
ENDROOT
BRANCH   1   4
HETATM    4  O3  NAD X   1      10.979   6.755  11.253  1.00 20.00    -0.268  OA
BRANCH   4   5
HETATM    5  C1  NAD X   1      12.231   7.022  11.940  1.00 20.00     0.187   C
BRANCH   5   6
HETATM    6  C2  NAD X   1      12.056   6.854  13.425  1.00 20.00     0.181   C
HETATM    7  C3  NAD X   1      10.575   6.689  13.837  1.00 20.00     0.216   C
HETATM    8  C4  NAD X   1      10.384   7.659  15.016  1.00 20.00     0.234   C
HETATM    9  O5  NAD X   1      10.414   5.305  14.235  1.00 20.00    -0.218  OA
HETATM   10  C5  NAD X   1      11.839   7.929  15.480  1.00 20.00     0.241   C
HETATM   11  O6  NAD X   1       9.555   7.053  15.978  1.00 20.00    -0.216  OA
HETATM   12  O4  NAD X   1      12.572   7.964  14.249  1.00 20.00    -0.331  OA
BRANCH  10  13
HETATM   13  N1  NAD X   1      12.038   9.183  16.256  1.00 20.00    -0.270   N
HETATM   14  C6  NAD X   1      11.424  10.102  17.087  1.00 20.00     0.182   A
HETATM   15  N2  NAD X   1      12.178  11.126  17.465  1.00 20.00    -0.219  NA
HETATM   16  C7  NAD X   1      13.381  10.900  16.801  1.00 20.00     0.155   A
HETATM   17  C8  NAD X   1      14.579  11.582  16.810  1.00 20.00     0.206   A
HETATM   18 C10  NAD X   1      13.312   9.717  16.073  1.00 20.00     0.170   A
HETATM   19  N3  NAD X   1      14.814  12.667  17.531  1.00 20.00    -0.125   N
HETATM   20  N4  NAD X   1      15.576  11.067  16.109  1.00 20.00    -0.202  NA
HETATM   21  C9  NAD X   1      15.372   9.964  15.393  1.00 20.00     0.202   A
HETATM   22  N5  NAD X   1      14.312   9.184  15.350  1.00 20.00    -0.205  NA
ENDBRANCH  10  13
ENDBRANCH   5   6
ENDBRANCH   4   5
ENDBRANCH   1   4
BRANCH   1  23
HETATM   23  O7  NAD X   1       9.175   7.752   9.739  1.00 20.00    -0.180  OA
BRANCH  23  24
HETATM   24  P2  NAD X   1       8.637   9.120   9.456  1.00 20.00     0.418   P
HETATM   25  O8  NAD X   1       9.061   9.944  10.632  1.00 20.00    -0.624  OA
HETATM   26  O9  NAD X   1       7.278   9.222   8.855  1.00 20.00    -0.624  OA
BRANCH  24  27
HETATM   27 O10  NAD X   1       9.798   9.653   8.480  1.00 20.00    -0.268  OA
BRANCH  27  28
HETATM   28 C11  NAD X   1       9.596  10.016   7.117  1.00 20.00     0.187   C
BRANCH  28  29
HETATM   29 C12  NAD X   1       8.552  11.140   7.077  1.00 20.00     0.181   C
HETATM   30 O11  NAD X   1       7.463  10.847   8.003  1.00 20.00    -0.331  OA
HETATM   31 C15  NAD X   1       7.212  12.089   8.656  1.00 20.00     0.239   C
HETATM   32 C14  NAD X   1       8.575  12.710   8.832  1.00 20.00     0.234   C
HETATM   33 C13  NAD X   1       9.190  12.465   7.496  1.00 20.00     0.216   C
HETATM   34 O13  NAD X   1       8.399  14.083   9.022  1.00 20.00    -0.216  OA
HETATM   35 O12  NAD X   1       8.741  13.416   6.601  1.00 20.00    -0.218  OA
BRANCH  31  36
HETATM   36  N6  NAD X   1       6.472  11.893   9.890  1.00 20.00    -0.301   N
HETATM   37 C16  NAD X   1       7.225  11.577  11.013  1.00 20.00     0.082   C
HETATM   38 C17  NAD X   1       6.823  11.418  12.307  1.00 20.00     0.063   C
HETATM   39 C19  NAD X   1       5.458  11.437  12.324  1.00 20.00     0.007   C
HETATM   40 C20  NAD X   1       4.571  11.621  11.228  1.00 20.00     0.019   C
HETATM   41 C21  NAD X   1       5.125  11.891   9.943  1.00 20.00     0.078   C
BRANCH  38  42
HETATM   42 C18  NAD X   1       7.634  11.058  13.483  1.00 20.00     0.234   C
HETATM   43  N7  NAD X   1       8.419   9.994  13.547  1.00 20.00    -0.118   N
HETATM   44 O14  NAD X   1       7.563  11.695  14.658  1.00 20.00    -0.167  OA
ENDBRANCH  38  42
ENDBRANCH  31  36
ENDBRANCH  28  29
ENDBRANCH  27  28
ENDBRANCH  24  27
ENDBRANCH  23  24
ENDBRANCH   1  23
TORSDOF 11