ROOT
HETATM    1 N01  NM1 B 501       4.641  18.488   7.599  1.00 21.99    -0.236   N
HETATM    2 S02  NM1 B 501       5.022  17.556   8.909  1.00 23.13     0.327   S
HETATM    3 N03  NM1 B 501       6.456  18.228   9.346  1.00 20.53    -0.254   N
HETATM    4 C04  NM1 B 501       7.588  17.886   8.454  1.00 23.50     0.157   C
HETATM    5 C05  NM1 B 501       7.824  18.925   7.345  1.00 20.11     0.208   C
HETATM    6 C06  NM1 B 501       6.570  19.590   6.790  1.00 20.62     0.208   C
HETATM    7 C07  NM1 B 501       5.427  18.652   6.364  1.00 20.49     0.162   C
HETATM    8 O15  NM1 B 501       5.218  16.156   8.534  1.00 19.88    -0.182  OA
HETATM    9 O30  NM1 B 501       8.652  19.965   7.823  1.00 21.02    -0.218  OA
HETATM   10 O31  NM1 B 501       6.976  20.408   5.700  1.00 18.62    -0.218  OA
HETATM   11 O40  NM1 B 501       4.070  17.842   9.982  1.00 22.68    -0.182  OA
ENDROOT
BRANCH   1  12
HETATM   12 C08  NM1 B 501       3.273  18.597   7.332  1.00 24.06     0.088   C
BRANCH  12  13
HETATM   13 C09  NM1 B 501       2.501  18.240   6.127  1.00 23.29     0.018   A
HETATM   14 C10  NM1 B 501       2.948  17.227   5.248  1.00 22.54     0.006   A
HETATM   15 C11  NM1 B 501       2.196  16.926   4.082  1.00 25.39     0.058   A
HETATM   16 C12  NM1 B 501       0.982  17.651   3.796  1.00 24.01     0.005   A
HETATM   17 C13  NM1 B 501       0.533  18.668   4.678  1.00 23.46     0.000   A
HETATM   18 C14  NM1 B 501       1.295  18.963   5.842  1.00 22.88     0.002   A
BRANCH  15  19
HETATM   19 C51  NM1 B 501       2.680  15.872   3.139  1.00 26.95     0.275   C
HETATM   20 O52  NM1 B 501       2.107  14.753   3.134  1.00 26.78    -0.266  OA
HETATM   21 N53  NM1 B 501       3.750  16.136   2.306  1.00 25.95    -0.232  NA
HETATM   22 C54  NM1 B 501       4.195  15.068   1.435  1.00 27.69     0.155   C
ENDBRANCH  15  19
ENDBRANCH  12  13
ENDBRANCH   1  12
BRANCH   7  23
HETATM   23 C32  NM1 B 501       5.684  17.307   5.630  1.00 22.38     0.175   C
BRANCH  23  24
HETATM   24 O33  NM1 B 501       6.803  17.509   4.724  1.00 24.70    -0.329  OA
BRANCH  24  25
HETATM   25 C34  NM1 B 501       6.656  17.547   3.358  1.00 25.64     0.094   A
HETATM   26 C35  NM1 B 501       7.690  17.104   2.454  1.00 26.05     0.024   A
HETATM   27 C36  NM1 B 501       7.504  17.165   1.041  1.00 28.20     0.002   A
HETATM   28 C37  NM1 B 501       6.283  17.676   0.510  1.00 26.48     0.000   A
HETATM   29 C38  NM1 B 501       5.252  18.118   1.384  1.00 28.53     0.002   A
HETATM   30 C39  NM1 B 501       5.439  18.050   2.803  1.00 27.29     0.024   A
ENDBRANCH  24  25
ENDBRANCH  23  24
ENDBRANCH   7  23
BRANCH   3  31
HETATM   31 C23  NM1 B 501       6.430  19.442  10.235  1.00 23.78     0.141   C
BRANCH  31  32
HETATM   32 C24  NM1 B 501       6.394  19.284  11.737  1.00 24.24     0.001   A
HETATM   33 C25  NM1 B 501       7.174  20.146  12.568  1.00 26.41    -0.002   A
HETATM   34 C26  NM1 B 501       7.136  20.005  13.994  1.00 26.76    -0.000   A
HETATM   35 C27  NM1 B 501       6.311  18.993  14.592  1.00 27.91    -0.000   A
HETATM   36 C28  NM1 B 501       5.527  18.122  13.764  1.00 27.82    -0.000   A
HETATM   37 C29  NM1 B 501       5.572  18.271  12.343  1.00 26.57    -0.002   A
ENDBRANCH  31  32
ENDBRANCH   3  31
BRANCH   4  38
HETATM   38 C41  NM1 B 501       8.867  17.572   9.237  1.00 23.97     0.174   C
BRANCH  38  39
HETATM   39 O16  NM1 B 501       8.642  17.673  10.664  1.00 27.68    -0.329  OA
BRANCH  39  40
HETATM   40 C17  NM1 B 501       9.254  16.769  11.523  1.00 27.94     0.094   A
HETATM   41 C18  NM1 B 501       8.749  16.527  12.854  1.00 28.82     0.024   A
HETATM   42 C19  NM1 B 501       9.388  15.593  13.729  1.00 28.02     0.002   A
HETATM   43 C20  NM1 B 501      10.544  14.883  13.277  1.00 28.29     0.000   A
HETATM   44 C21  NM1 B 501      11.058  15.108  11.962  1.00 27.44     0.002   A
HETATM   45 C22  NM1 B 501      10.415  16.048  11.094  1.00 27.39     0.024   A
ENDBRANCH  39  40
ENDBRANCH  38  39
ENDBRANCH   4  38
TORSDOF 11