ROOT
HETATM    1 N01  NMB A 501      17.373  14.600   0.154  1.00 15.06    -0.236   N
HETATM    2 S02  NMB A 501      16.381  15.784  -0.453  1.00 12.44     0.327   S
HETATM    3 N03  NMB A 501      15.098  14.913  -0.888  1.00 13.50    -0.254   N
HETATM    4 C04  NMB A 501      15.293  14.137  -2.142  1.00 16.90     0.157   C
HETATM    5 C05  NMB A 501      15.766  12.725  -1.851  1.00 12.70     0.208   C
HETATM    6 C06  NMB A 501      16.616  12.586  -0.608  1.00 12.56     0.208   C
HETATM    7 C07  NMB A 501      17.874  13.437  -0.544  1.00 11.34     0.162   C
HETATM    8 O15  NMB A 501      16.927  16.414  -1.632  1.00 13.56    -0.182  OA
HETATM    9 O30  NMB A 501      14.654  11.879  -1.661  1.00 13.24    -0.218  OA
HETATM   10 O31  NMB A 501      16.902  11.216  -0.453  1.00 15.08    -0.218  OA
HETATM   11 O40  NMB A 501      15.976  16.614   0.632  1.00 16.60    -0.182  OA
ENDROOT
BRANCH   1  12
HETATM   12 C08  NMB A 501      18.308  15.075   1.080  1.00 15.66     0.088   C
BRANCH  12  13
HETATM   13 C09  NMB A 501      18.942  14.476   2.288  1.00 14.71     0.018   A
HETATM   14 C10  NMB A 501      20.238  13.951   2.237  1.00 12.56     0.002   A
HETATM   15 C11  NMB A 501      20.813  13.388   3.377  1.00 19.25     0.000   A
HETATM   16 C12  NMB A 501      20.079  13.342   4.596  1.00 18.30     0.000   A
HETATM   17 C13  NMB A 501      18.773  13.861   4.661  1.00 14.23     0.000   A
HETATM   18 C14  NMB A 501      18.205  14.430   3.500  1.00 15.35     0.002   A
ENDBRANCH  12  13
ENDBRANCH   1  12
BRANCH   7  19
HETATM   19 C32  NMB A 501      18.666  13.832  -1.804  1.00 11.25     0.175   C
BRANCH  19  20
HETATM   20 O33  NMB A 501      19.249  15.123  -1.499  1.00 12.26    -0.329  OA
BRANCH  20  21
HETATM   21 C34  NMB A 501      20.442  15.463  -2.025  1.00 12.57     0.094   A
HETATM   22 C35  NMB A 501      21.604  15.483  -1.229  1.00 14.00     0.024   A
HETATM   23 C36  NMB A 501      22.849  15.842  -1.765  1.00 14.78     0.002   A
HETATM   24 C37  NMB A 501      22.942  16.192  -3.117  1.00 14.25     0.000   A
HETATM   25 C38  NMB A 501      21.788  16.181  -3.919  1.00 17.66     0.002   A
HETATM   26 C39  NMB A 501      20.542  15.812  -3.367  1.00 14.50     0.024   A
ENDBRANCH  20  21
ENDBRANCH  19  20
ENDBRANCH   7  19
BRANCH   3  27
HETATM   27 C23  NMB A 501      14.088  14.586   0.143  1.00 11.47     0.141   C
BRANCH  27  28
HETATM   28 C24  NMB A 501      14.439  14.764   1.595  1.00 12.93     0.001   A
HETATM   29 C25  NMB A 501      15.183  13.777   2.288  1.00 16.94    -0.002   A
HETATM   30 C26  NMB A 501      15.520  13.960   3.658  1.00 18.28    -0.000   A
HETATM   31 C27  NMB A 501      15.112  15.128   4.334  1.00 13.74    -0.000   A
HETATM   32 C28  NMB A 501      14.368  16.110   3.642  1.00 16.62    -0.000   A
HETATM   33 C29  NMB A 501      14.037  15.925   2.280  1.00 13.68    -0.002   A
ENDBRANCH  27  28
ENDBRANCH   3  27
BRANCH   4  34
HETATM   34 C41  NMB A 501      14.034  14.140  -3.027  1.00 18.23     0.174   C
BRANCH  34  35
HETATM   35 O16  NMB A 501      14.175  13.164  -4.086  1.00 20.72    -0.329  OA
BRANCH  35  36
HETATM   36 C17  NMB A 501      14.150  11.839  -3.784  1.00 14.47     0.094   A
HETATM   37 C18  NMB A 501      14.280  11.414  -2.445  1.00 11.79     0.024   A
HETATM   38 C19  NMB A 501      14.249  10.047  -2.130  1.00 14.96     0.002   A
HETATM   39 C20  NMB A 501      14.077   9.100  -3.164  1.00 14.23     0.000   A
HETATM   40 C21  NMB A 501      13.943   9.520  -4.498  1.00 12.66     0.002   A
HETATM   41 C22  NMB A 501      13.983  10.885  -4.799  1.00 11.31     0.024   A
ENDBRANCH  35  36
ENDBRANCH  34  35
ENDBRANCH   4  34
TORSDOF 10