ROOT
HETATM    1 N01  NMB A 501      11.282  21.035   6.004  1.00 15.06    -0.236   N
HETATM    2 S02  NMB A 501      11.681  22.453   6.769  1.00 12.44     0.327   S
HETATM    3 N03  NMB A 501      13.016  22.866   5.971  1.00 13.50    -0.254   N
HETATM    4 C04  NMB A 501      14.217  22.075   6.353  1.00 16.90     0.157   C
HETATM    5 C05  NMB A 501      14.409  20.882   5.435  1.00 12.70     0.208   C
HETATM    6 C06  NMB A 501      13.128  20.296   4.882  1.00 12.56     0.208   C
HETATM    7 C07  NMB A 501      12.092  19.842   5.898  1.00 11.34     0.162   C
HETATM    8 O15  NMB A 501      12.022  22.255   8.159  1.00 13.56    -0.182  OA
HETATM    9 O30  NMB A 501      15.181  21.258   4.317  1.00 13.24    -0.218  OA
HETATM   10 O31  NMB A 501      13.493  19.258   4.004  1.00 15.08    -0.218  OA
HETATM   11 O40  NMB A 501      10.683  23.418   6.448  1.00 16.60    -0.182  OA
ENDROOT
BRANCH   1  12
HETATM   12 C08  NMB A 501       9.923  20.717   6.090  1.00 15.66     0.088   C
BRANCH  12  13
HETATM   13 C09  NMB A 501       9.011  19.903   5.238  1.00 14.71     0.018   A
HETATM   14 C10  NMB A 501       8.929  18.514   5.388  1.00 12.56     0.002   A
HETATM   15 C11  NMB A 501       8.074  17.769   4.576  1.00 19.25     0.000   A
HETATM   16 C12  NMB A 501       7.283  18.420   3.588  1.00 18.30     0.000   A
HETATM   17 C13  NMB A 501       7.358  19.815   3.422  1.00 14.23     0.000   A
HETATM   18 C14  NMB A 501       8.226  20.557   4.252  1.00 15.35     0.002   A
ENDBRANCH  12  13
ENDBRANCH   1  12
BRANCH   7  19
HETATM   19 C32  NMB A 501      12.482  19.299   7.285  1.00 11.25     0.175   C
BRANCH  19  20
HETATM   20 O33  NMB A 501      11.228  19.074   7.973  1.00 12.26    -0.329  OA
BRANCH  20  21
HETATM   21 C34  NMB A 501      11.139  18.116   8.915  1.00 12.57     0.094   A
HETATM   22 C35  NMB A 501       9.932  17.888   9.605  1.00 14.00     0.024   A
HETATM   23 C36  NMB A 501       9.831  16.897  10.592  1.00 14.78     0.002   A
HETATM   24 C37  NMB A 501      10.952  16.118  10.903  1.00 14.25     0.000   A
HETATM   25 C38  NMB A 501      12.162  16.340  10.225  1.00 17.66     0.002   A
HETATM   26 C39  NMB A 501      12.249  17.338   9.230  1.00 14.50     0.024   A
ENDBRANCH  20  21
ENDBRANCH  19  20
ENDBRANCH   7  19
BRANCH   3  27
HETATM   27 C23  NMB A 501      12.872  23.591   4.689  1.00 11.47     0.141   C
BRANCH  27  28
HETATM   28 C24  NMB A 501      12.494  25.046   4.709  1.00 12.93     0.001   A
HETATM   29 C25  NMB A 501      11.215  25.469   4.269  1.00 16.94    -0.002   A
HETATM   30 C26  NMB A 501      10.862  26.848   4.302  1.00 18.28    -0.000   A
HETATM   31 C27  NMB A 501      11.788  27.800   4.774  1.00 13.74    -0.000   A
HETATM   32 C28  NMB A 501      13.063  27.377   5.210  1.00 16.62    -0.000   A
HETATM   33 C29  NMB A 501      13.410  26.006   5.177  1.00 13.68    -0.002   A
ENDBRANCH  27  28
ENDBRANCH   3  27
BRANCH   4  34
HETATM   34 C41  NMB A 501      15.485  22.943   6.422  1.00 18.23     0.174   C
BRANCH  34  35
HETATM   35 O16  NMB A 501      16.229  22.633   7.625  1.00 20.72    -0.329  OA
BRANCH  35  36
HETATM   36 C17  NMB A 501      15.652  21.870   8.590  1.00 14.47     0.094   A
HETATM   37 C18  NMB A 501      15.393  20.503   8.353  1.00 11.79     0.024   A
HETATM   38 C19  NMB A 501      14.803  19.711   9.351  1.00 14.96     0.002   A
HETATM   39 C20  NMB A 501      14.477  20.292  10.597  1.00 14.23     0.000   A
HETATM   40 C21  NMB A 501      14.738  21.653  10.837  1.00 12.66     0.002   A
HETATM   41 C22  NMB A 501      15.321  22.431   9.832  1.00 11.31     0.024   A
ENDBRANCH  35  36
ENDBRANCH  34  35
ENDBRANCH   4  34
TORSDOF 10