ROOT
HETATM    1  N1  PI8 A 201      14.297   5.480  28.048  1.00 19.18    -0.233  NA
HETATM    2 C10  PI8 A 201      14.375   5.305  26.732  1.00 20.55     0.252   C
HETATM    3  O2  PI8 A 201      13.836   4.361  26.145  1.00 19.25    -0.271  OA
ENDROOT
BRANCH   1   4
HETATM    4  C2  PI8 A 201      13.519   4.559  28.897  1.00 20.16     0.159   C
HETATM    5  C1  PI8 A 201      12.889   3.572  27.943  1.00 18.07     0.183   C
HETATM    6  O1  PI8 A 201      12.592   4.219  26.701  1.00 18.53    -0.221  OA
HETATM    7  C9  PI8 A 201      11.625   3.141  28.587  1.00 20.10     0.061   C
HETATM    8  C8  PI8 A 201      11.254   4.303  29.466  1.00 21.45    -0.022   A
HETATM    9  C3  PI8 A 201      12.352   5.127  29.641  1.00 20.72    -0.001   A
HETATM   10  C7  PI8 A 201      10.044   4.612  30.064  1.00 22.09    -0.004   A
HETATM   11  C4  PI8 A 201      12.258   6.272  30.415  1.00 19.11    -0.003   A
HETATM   12  C5  PI8 A 201      11.049   6.598  31.023  1.00 21.94    -0.000   A
HETATM   13  C6  PI8 A 201       9.935   5.763  30.846  1.00 22.40    -0.000   A
ENDBRANCH   1   4
BRANCH   2  14
HETATM   14 C11  PI8 A 201      15.194   6.348  25.958  1.00 20.30     0.090   C
BRANCH  14  15
HETATM   15 C12  PI8 A 201      14.879   7.747  26.481  1.00 22.19     0.036   C
BRANCH  15  16
HETATM   16 C13  PI8 A 201      15.270   8.842  25.541  1.00 23.03    -0.022   A
HETATM   17 C18  PI8 A 201      16.608   9.084  25.257  1.00 23.56    -0.004   A
HETATM   18 C17  PI8 A 201      16.972  10.086  24.368  1.00 24.81    -0.000   A
HETATM   19 C16  PI8 A 201      15.989  10.858  23.754  1.00 25.23    -0.000   A
HETATM   20 C15  PI8 A 201      14.651  10.624  24.034  1.00 24.54    -0.000   A
HETATM   21 C14  PI8 A 201      14.298   9.621  24.923  1.00 24.49    -0.004   A
ENDBRANCH  15  16
ENDBRANCH  14  15
BRANCH  14  22
HETATM   22 C19  PI8 A 201      14.833   6.291  24.482  1.00 17.94     0.074   C
HETATM   23 C20  PI8 A 201      14.908   4.926  23.826  0.50 18.98     0.188   C
HETATM   24 O3A  PI8 A 201      16.184   4.758  23.197  0.50 18.23    -0.221  OA
HETATM   25 C21  PI8 A 201      13.813   4.881  22.786  0.50 20.52     0.284   C
HETATM   26  N2  PI8 A 201      13.819   3.600  22.089  1.00 17.66     0.150   N
HETATM   27 C21  PI8 A 201      14.468   4.886  22.403  0.50 19.16     0.284   C
HETATM   28 C20  PI8 A 201      14.973   4.904  23.846  0.50 19.50     0.188   C
HETATM   29  O3  PI8 A 201      16.345   4.492  23.874  0.50 21.49    -0.221  OA
BRANCH  26  30
HETATM   30 C22  PI8 A 201      13.140   3.702  20.793  1.00 19.21     0.303   C
HETATM   31 C23  PI8 A 201      11.844   2.885  20.822  1.00 18.71     0.070   C
HETATM   32 C24  PI8 A 201      10.927   3.177  19.665  1.00 20.63    -0.020   A
HETATM   33 C25  PI8 A 201      11.133   2.584  18.423  1.00 21.72    -0.002   A
HETATM   34 C29  PI8 A 201       9.881   4.091  19.798  1.00 20.00    -0.002   A
HETATM   35 C26  PI8 A 201      10.325   2.897  17.334  1.00 25.67     0.024   A
HETATM   36 C27  PI8 A 201       9.293   3.815  17.486  1.00 26.10     0.094   A
HETATM   37 C28  PI8 A 201       9.070   4.413  18.719  1.00 25.78     0.024   A
HETATM   38  O6  PI8 A 201       8.481   4.170  16.424  0.50 27.31    -0.331  OA
HETATM   39 C41  PI8 A 201       8.805   3.908  15.065  0.50 26.00     0.149   C
HETATM   40 C40  PI8 A 201       9.928   4.813  14.576  0.50 25.69     0.033   C
HETATM   41 C39  PI8 A 201       9.593   6.282  14.774  0.50 26.93     0.005   C
HETATM   42 C38  PI8 A 201      10.668   7.183  14.181  0.50 27.90     0.026   C
HETATM   43 C37  PI8 A 201      12.062   6.817  14.680  1.00 26.49     0.129   C
HETATM   44  N4  PI8 A 201      12.210   6.992  16.137  1.00 26.52    -0.236  NA
HETATM   45 C36  PI8 A 201      13.137   6.381  16.874  1.00 22.84     0.272   C
HETATM   46 C31  PI8 A 201      13.133   6.689  18.373  1.00 21.43     0.159   C
HETATM   47  O5  PI8 A 201      13.944   5.572  16.402  1.00 24.71    -0.269  OA
HETATM   48  N3  PI8 A 201      13.384   5.413  19.075  1.00 19.03    -0.231  NA
HETATM   49 C30  PI8 A 201      12.853   5.118  20.261  1.00 20.46     0.283   C
HETATM   50  O4  PI8 A 201      12.241   5.940  20.944  1.00 22.68    -0.268  OA
BRANCH  46  51
HETATM   51 C32  PI8 A 201      14.223   7.758  18.658  0.50 22.46     0.029   C
HETATM   52 C33  PI8 A 201      15.560   7.304  18.063  0.50 24.59     0.002   C
BRANCH  51  53
HETATM   53 C34  PI8 A 201      13.837   9.112  18.060  0.50 23.35     0.002   C
HETATM   54 C35  PI8 A 201      14.242   9.283  16.635  0.50 22.81     0.000   C
ENDBRANCH  51  53
ENDBRANCH  46  51
BRANCH  46  55
HETATM   55 C32  PI8 A 201      14.170   7.830  18.698  0.50 20.09     0.029   C
HETATM   56 C33  PI8 A 201      13.961   9.074  17.844  0.50 21.21     0.002   C
BRANCH  55  57
HETATM   57 C34  PI8 A 201      14.147   8.157  20.193  0.50 17.69     0.002   C
HETATM   58 C35  PI8 A 201      13.382   7.204  21.018  0.50 17.72     0.000   C
ENDBRANCH  55  57
ENDBRANCH  46  55
ENDBRANCH  26  30
ENDBRANCH  14  22
ENDBRANCH   2  14
TORSDOF 10