ROOT
HETATM    1 CZ8  U02 A 100      16.071  24.285   0.786  1.00 52.80     0.030   C
HETATM    2 CZ7  U02 A 100      14.874  25.755   2.390  1.00 39.90     0.030   C
HETATM    3 CZ6  U02 A 100      13.571  24.494   0.668  1.00 43.60     0.030   C
HETATM    4 CZ5  U02 A 100      14.788  24.439   1.604  1.00 49.20     0.103   C
ENDROOT
BRANCH   4   5
HETATM    5 OZ5  U02 A 100      14.554  23.275   2.423  1.00 57.20    -0.289  OA
BRANCH   5   6
HETATM    6 CZ4  U02 A 100      14.715  22.018   1.847  1.00 47.70     0.383   C
HETATM    7 OZ4  U02 A 100      13.758  21.231   1.799  1.00 57.60    -0.236  OA
HETATM    8 NZ3  U02 A 100      15.929  21.725   1.406  1.00 23.90    -0.212  NA
BRANCH   8   9
HETATM    9 CZ3  U02 A 100      16.174  20.497   0.630  1.00 11.90     0.141   C
BRANCH   9  10
HETATM   10 CZ2  U02 A 100      15.914  20.555  -0.884  1.00  9.40     0.116   C
BRANCH  10  11
HETATM   11 CZ1  U02 A 100      16.463  21.797  -1.565  1.00 16.00     0.258   C
HETATM   12 OZ1  U02 A 100      15.762  22.784  -1.786  1.00 23.80    -0.270  OA
HETATM   13 NZ1  U02 A 100      17.729  21.755  -1.943  1.00 18.60    -0.212  NA
BRANCH  13  14
HETATM   14 CB5  U02 A 100      18.195  22.907  -2.619  1.00 26.10     0.084   A
HETATM   15 CB4  U02 A 100      17.993  22.961  -3.994  1.00 39.90     0.019   A
HETATM   16 CB3  U02 A 100      18.395  24.071  -4.730  1.00 39.00     0.001   A
HETATM   17 CB2  U02 A 100      19.000  25.142  -4.087  1.00 25.30    -0.004   A
HETATM   18 CB1  U02 A 100      19.230  25.095  -2.716  1.00 15.10    -0.017   A
HETATM   19 CB6  U02 A 100      18.796  23.992  -1.962  1.00 18.90     0.015   A
BRANCH  18  20
HETATM   20 CG1  U02 A 100      20.021  26.272  -2.135  1.00 14.30     0.052   C
BRANCH  20  21
HETATM   21 CG2  U02 A 100      20.959  26.825  -3.167  1.00 20.80     0.008   A
HETATM   22 CG3  U02 A 100      20.571  27.192  -4.579  1.00 24.50     0.001   A
HETATM   23 CG4  U02 A 100      21.577  26.085  -4.329  1.00 27.30     0.001   A
ENDBRANCH  20  21
BRANCH  20  24
HETATM   24  CA  U02 A 100      19.179  27.337  -1.393  1.00 15.90     0.070   A
HETATM   25 CA2  U02 A 100      19.184  28.626  -1.964  1.00 23.50     0.298   A
HETATM   26 OA2  U02 A 100      19.574  28.856  -3.081  1.00 32.10    -0.259  OA
HETATM   27 OA3  U02 A 100      18.452  29.572  -1.409  1.00 22.00    -0.278  OA
HETATM   28 CA4  U02 A 100      17.695  29.351  -0.313  1.00 23.90     0.083   A
HETATM   29 CA5  U02 A 100      17.684  28.115   0.340  1.00 15.40     0.048   A
HETATM   30 CA6  U02 A 100      18.432  27.075  -0.217  1.00 11.10     0.134   A
HETATM   31 OA6  U02 A 100      18.550  25.985   0.594  1.00  7.80    -0.190  OA
BRANCH  28  32
HETATM   32  CD  U02 A 100      16.657  30.318   0.070  1.00 22.80     0.050   C
BRANCH  32  33
HETATM   33 CD1  U02 A 100      16.118  31.060  -1.163  1.00 17.10     0.007   C
HETATM   34 CD2  U02 A 100      15.173  30.164  -1.994  1.00  8.50     0.000   C
ENDBRANCH  32  33
BRANCH  32  35
HETATM   35  CE  U02 A 100      17.910  30.879   0.771  1.00 17.10     0.033   C
BRANCH  35  36
HETATM   36 CE1  U02 A 100      17.701  31.766   1.981  1.00 34.10    -0.022   A
HETATM   37 CE2  U02 A 100      17.814  33.141   1.829  1.00 56.70    -0.004   A
HETATM   38 CE3  U02 A 100      17.604  33.980   2.917  1.00 65.60    -0.000   A
HETATM   39 CE4  U02 A 100      17.290  33.447   4.161  1.00 61.60    -0.000   A
HETATM   40 CE5  U02 A 100      17.192  32.069   4.306  1.00 50.00    -0.000   A
HETATM   41 CE6  U02 A 100      17.401  31.228   3.220  1.00 57.90    -0.004   A
ENDBRANCH  35  36
ENDBRANCH  32  35
ENDBRANCH  28  32
ENDBRANCH  20  24
ENDBRANCH  18  20
ENDBRANCH  13  14
ENDBRANCH  10  11
ENDBRANCH   9  10
ENDBRANCH   8   9
ENDBRANCH   5   6
ENDBRANCH   4   5
TORSDOF 13