ROOT
HETATM    1  O1  XV6 A 638     -14.272  12.746  18.960  1.00 14.88    -0.247  OA
HETATM    2  O4  XV6 A 638     -19.762  13.615  20.209  1.00 10.51    -0.219  OA
HETATM    3  O5  XV6 A 638     -19.254  15.325  18.046  1.00 14.93    -0.219  OA
HETATM    4  N2  XV6 A 638     -16.187  12.687  20.027  1.00 15.87    -0.298   N
HETATM    5  N7  XV6 A 638     -15.917  13.755  17.925  1.00 11.03    -0.298   N
HETATM    6  C1  XV6 A 638     -15.450  13.050  18.961  1.00 11.21     0.324   C
HETATM    7  C3  XV6 A 638     -17.673  12.629  20.093  1.00 11.65     0.123   C
HETATM    8  C4  XV6 A 638     -18.464  13.887  19.782  1.00 11.06     0.205   C
HETATM    9  C5  XV6 A 638     -18.411  14.240  18.315  1.00  9.80     0.205   C
HETATM   10  C6  XV6 A 638     -17.021  14.751  18.023  1.00 12.18     0.123   C
ENDROOT
BRANCH   4  11
HETATM   11  C2  XV6 A 638     -15.444  12.237  21.229  1.00 16.48     0.133   C
BRANCH  11  12
HETATM   12 C20  XV6 A 638     -14.306  13.136  21.640  1.00 15.25     0.000   A
HETATM   13 C21  XV6 A 638     -13.793  14.036  20.694  1.00 15.89     0.002   A
HETATM   14 C22  XV6 A 638     -12.701  14.861  21.038  1.00 18.57     0.058   A
HETATM   15 C23  XV6 A 638     -12.124  14.785  22.327  1.00 19.07     0.005   A
HETATM   16 C24  XV6 A 638     -12.639  13.880  23.284  1.00 17.05    -0.000   A
HETATM   17 C25  XV6 A 638     -13.738  13.061  22.938  1.00 17.61    -0.002   A
BRANCH  14  18
HETATM   18 C26  XV6 A 638     -12.171  15.861  20.060  1.00 22.52     0.281   C
HETATM   19 O26  XV6 A 638     -12.295  15.746  18.849  1.00 17.61    -0.265  OA
HETATM   20 N26  XV6 A 638     -11.501  16.890  20.622  1.00 24.45    -0.183  NA
BRANCH  20  21
HETATM   21 C27  XV6 A 638     -10.803  17.893  19.809  1.00 26.10     0.197   A
HETATM   22 N27  XV6 A 638     -11.381  18.916  19.172  1.00 28.26    -0.219  NA
HETATM   23 C28  XV6 A 638     -10.477  19.735  18.530  1.00 27.20     0.108   A
HETATM   24 C29  XV6 A 638      -9.132  19.362  18.646  1.00 29.64     0.059   A
HETATM   25 S29  XV6 A 638      -9.137  17.964  19.586  1.00 27.24    -0.046  SA
ENDBRANCH  20  21
ENDBRANCH  14  18
ENDBRANCH  11  12
ENDBRANCH   4  11
BRANCH   5  26
HETATM   26  C7  XV6 A 638     -15.095  13.740  16.707  1.00 11.27     0.133   C
BRANCH  26  27
HETATM   27 C70  XV6 A 638     -14.402  12.462  16.367  1.00  8.91     0.000   A
HETATM   28 C71  XV6 A 638     -14.321  12.103  15.023  1.00 12.12     0.002   A
HETATM   29 C72  XV6 A 638     -13.731  10.879  14.661  1.00 10.60     0.058   A
HETATM   30 C73  XV6 A 638     -13.213  10.023  15.651  1.00 13.93     0.005   A
HETATM   31 C74  XV6 A 638     -13.268  10.383  17.016  1.00 10.91    -0.000   A
HETATM   32 C75  XV6 A 638     -13.868  11.610  17.368  1.00 15.16    -0.002   A
BRANCH  29  33
HETATM   33 C76  XV6 A 638     -13.678  10.470  13.233  1.00 15.24     0.281   C
HETATM   34 O76  XV6 A 638     -14.677  10.258  12.572  1.00 10.93    -0.265  OA
HETATM   35 N76  XV6 A 638     -12.444  10.372  12.708  1.00 15.58    -0.183  NA
BRANCH  35  36
HETATM   36 C77  XV6 A 638     -12.199   9.996  11.300  1.00 19.75     0.197   A
HETATM   37 N77  XV6 A 638     -12.278   8.739  10.818  1.00 19.29    -0.219  NA
HETATM   38 C78  XV6 A 638     -12.040   8.672   9.461  1.00 20.58     0.108   A
HETATM   39 C79  XV6 A 638     -11.759   9.906   8.827  1.00 20.94     0.059   A
HETATM   40 S79  XV6 A 638     -11.815  11.077  10.044  1.00 23.74    -0.046  SA
ENDBRANCH  35  36
ENDBRANCH  29  33
ENDBRANCH  26  27
ENDBRANCH   5  26
BRANCH   7  41
HETATM   41 C31  XV6 A 638     -18.161  11.341  19.405  1.00  7.66     0.051   C
BRANCH  41  42
HETATM   42 C32  XV6 A 638     -17.140  10.765  18.445  1.00  9.32    -0.020   A
HETATM   43 C33  XV6 A 638     -16.087   9.961  18.939  1.00  9.88    -0.004   A
HETATM   44 C34  XV6 A 638     -15.170   9.394  18.038  1.00 10.78    -0.000   A
HETATM   45 C35  XV6 A 638     -15.314   9.637  16.655  1.00  9.96    -0.000   A
HETATM   46 C36  XV6 A 638     -16.356  10.440  16.161  1.00  8.23    -0.000   A
HETATM   47 C37  XV6 A 638     -17.271  11.004  17.065  1.00  5.30    -0.004   A
ENDBRANCH  41  42
ENDBRANCH   7  41
BRANCH  10  48
HETATM   48 C61  XV6 A 638     -16.590  15.929  18.938  1.00 13.45     0.051   C
BRANCH  48  49
HETATM   49 C62  XV6 A 638     -17.472  17.149  18.757  1.00 16.94    -0.020   A
HETATM   50 C63  XV6 A 638     -18.861  17.060  19.046  1.00 15.60    -0.004   A
HETATM   51 C64  XV6 A 638     -19.698  18.174  18.830  1.00 16.67    -0.000   A
HETATM   52 C65  XV6 A 638     -19.131  19.376  18.322  1.00 15.19    -0.000   A
HETATM   53 C66  XV6 A 638     -17.740  19.462  18.041  1.00 14.57    -0.000   A
HETATM   54 C67  XV6 A 638     -16.912  18.343  18.259  1.00 14.99    -0.004   A
ENDBRANCH  48  49
ENDBRANCH  10  48
TORSDOF 12