ROOT
HETATM    1  O1  XV6 A 638      -9.472  15.433  26.184  1.00 14.88    -0.247  OA
HETATM    2  O4  XV6 A 638      -7.378  12.207  30.387  1.00 10.51    -0.219  OA
HETATM    3  O5  XV6 A 638     -10.159  12.077  30.720  1.00 14.93    -0.219  OA
HETATM    4  N2  XV6 A 638      -8.047  14.509  27.571  1.00 15.87    -0.298   N
HETATM    5  N7  XV6 A 638     -10.364  13.995  27.574  1.00 11.03    -0.298   N
HETATM    6  C1  XV6 A 638      -9.298  14.642  27.092  1.00 11.21     0.324   C
HETATM    7  C3  XV6 A 638      -7.536  13.385  28.402  1.00 11.65     0.123   C
HETATM    8  C4  XV6 A 638      -8.236  13.074  29.714  1.00 11.06     0.205   C
HETATM    9  C5  XV6 A 638      -9.601  12.468  29.496  1.00  9.80     0.205   C
HETATM   10  C6  XV6 A 638     -10.508  13.565  28.994  1.00 12.18     0.123   C
ENDROOT
BRANCH   4  11
HETATM   11  C2  XV6 A 638      -7.067  15.549  27.175  1.00 16.48     0.133   C
BRANCH  11  12
HETATM   12 C20  XV6 A 638      -7.022  16.752  28.082  1.00 15.25     0.000   A
HETATM   13 C21  XV6 A 638      -6.134  17.792  27.766  1.00 15.89     0.002   A
HETATM   14 C22  XV6 A 638      -6.042  18.911  28.621  1.00 18.57     0.058   A
HETATM   15 C23  XV6 A 638      -6.836  18.990  29.787  1.00 19.07     0.005   A
HETATM   16 C24  XV6 A 638      -7.733  17.945  30.108  1.00 17.05    -0.000   A
HETATM   17 C25  XV6 A 638      -7.829  16.829  29.247  1.00 17.61    -0.002   A
BRANCH  14  18
HETATM   18 C26  XV6 A 638      -5.138  20.052  28.275  1.00 22.52     0.281   C
HETATM   19 O26  XV6 A 638      -5.030  20.504  27.144  1.00 17.61    -0.265  OA
HETATM   20 N26  XV6 A 638      -4.409  20.520  29.311  1.00 24.45    -0.183  NA
BRANCH  20  21
HETATM   21 C27  XV6 A 638      -3.377  21.547  29.129  1.00 26.10     0.197   A
HETATM   22 N27  XV6 A 638      -3.245  22.335  28.058  1.00 28.26    -0.219  NA
HETATM   23 C28  XV6 A 638      -2.222  23.249  28.179  1.00 27.20     0.108   A
HETATM   24 C29  XV6 A 638      -1.501  23.196  29.379  1.00 29.64     0.059   A
HETATM   25 S29  XV6 A 638      -2.210  21.955  30.270  1.00 27.24    -0.046  SA
ENDBRANCH  20  21
ENDBRANCH  14  18
ENDBRANCH  11  12
ENDBRANCH   4  11
BRANCH   5  26
HETATM   26  C7  XV6 A 638     -11.555  13.974  26.713  1.00 11.27     0.133   C
BRANCH  26  27
HETATM   27 C70  XV6 A 638     -11.486  13.145  25.473  1.00  8.91     0.000   A
HETATM   28 C71  XV6 A 638     -10.228  12.875  24.939  1.00 12.12     0.002   A
HETATM   29 C72  XV6 A 638     -10.119  12.150  23.740  1.00 10.60     0.058   A
HETATM   30 C73  XV6 A 638     -11.275  11.688  23.084  1.00 13.93     0.005   A
HETATM   31 C74  XV6 A 638     -12.558  11.935  23.625  1.00 10.91    -0.000   A
HETATM   32 C75  XV6 A 638     -12.655  12.669  24.825  1.00 15.16    -0.002   A
BRANCH  29  33
HETATM   33 C76  XV6 A 638      -8.782  11.893  23.143  1.00 15.24     0.281   C
HETATM   34 O76  XV6 A 638      -8.330  10.773  23.002  1.00 10.93    -0.265  OA
HETATM   35 N76  XV6 A 638      -8.109  12.986  22.745  1.00 15.58    -0.183  NA
BRANCH  35  36
HETATM   36 C77  XV6 A 638      -6.775  12.922  22.113  1.00 19.75     0.197   A
HETATM   37 N77  XV6 A 638      -5.606  12.968  22.785  1.00 19.29    -0.219  NA
HETATM   38 C78  XV6 A 638      -4.510  12.849  21.957  1.00 20.58     0.108   A
HETATM   39 C79  XV6 A 638      -4.796  12.705  20.579  1.00 20.94     0.059   A
HETATM   40 S79  XV6 A 638      -6.480  12.741  20.448  1.00 23.74    -0.046  SA
ENDBRANCH  35  36
ENDBRANCH  29  33
ENDBRANCH  26  27
ENDBRANCH   5  26
BRANCH   7  41
HETATM   41 C31  XV6 A 638      -7.243  12.176  27.494  1.00  7.66     0.051   C
BRANCH  41  42
HETATM   42 C32  XV6 A 638      -5.763  11.972  27.249  1.00  9.32    -0.020   A
HETATM   43 C33  XV6 A 638      -5.122  12.670  26.199  1.00  9.88    -0.004   A
HETATM   44 C34  XV6 A 638      -3.740  12.508  26.005  1.00 10.78    -0.000   A
HETATM   45 C35  XV6 A 638      -3.013  11.654  26.861  1.00  9.96    -0.000   A
HETATM   46 C36  XV6 A 638      -3.647  10.956  27.903  1.00  8.23    -0.000   A
HETATM   47 C37  XV6 A 638      -5.029  11.119  28.094  1.00  5.30    -0.004   A
ENDBRANCH  41  42
ENDBRANCH   7  41
BRANCH  10  48
HETATM   48 C61  XV6 A 638     -10.546  14.810  29.921  1.00 13.45     0.051   C
BRANCH  48  49
HETATM   49 C62  XV6 A 638     -11.469  14.614  31.107  1.00 16.94    -0.020   A
HETATM   50 C63  XV6 A 638     -11.664  15.678  32.030  1.00 15.60    -0.004   A
HETATM   51 C64  XV6 A 638     -12.479  15.487  33.164  1.00 16.67    -0.000   A
HETATM   52 C65  XV6 A 638     -13.097  14.222  33.365  1.00 15.19    -0.000   A
HETATM   53 C66  XV6 A 638     -12.905  13.162  32.437  1.00 14.57    -0.000   A
HETATM   54 C67  XV6 A 638     -12.088  13.363  31.307  1.00 14.99    -0.004   A
ENDBRANCH  48  49
ENDBRANCH  10  48
TORSDOF 12