ROOT
HETATM    1  P1  NAD X   1      -2.218  -3.358  -4.528  1.00 20.00     0.418   P
HETATM    2  O1  NAD X   1      -3.484  -3.118  -3.726  1.00 20.00    -0.624  OA
HETATM    3  O2  NAD X   1      -2.256  -3.073  -5.997  1.00 20.00    -0.624  OA
ENDROOT
BRANCH   1   4
HETATM    4  O3  NAD X   1      -1.830  -4.963  -4.463  1.00 20.00    -0.268  OA
BRANCH   4   5
HETATM    5  C1  NAD X   1      -0.774  -5.679  -5.158  1.00 20.00     0.187   C
BRANCH   5   6
HETATM    6  C2  NAD X   1      -1.348  -6.475  -6.298  1.00 20.00     0.181   C
HETATM    7  C3  NAD X   1      -1.622  -7.949  -5.920  1.00 20.00     0.216   C
HETATM    8  C4  NAD X   1      -1.018  -8.770  -7.072  1.00 20.00     0.234   C
HETATM    9  O5  NAD X   1      -3.062  -8.090  -5.843  1.00 20.00    -0.218  OA
HETATM   10  C5  NAD X   1      -0.887  -7.724  -8.210  1.00 20.00     0.241   C
HETATM   11  O6  NAD X   1      -1.868  -9.855  -7.356  1.00 20.00    -0.216  OA
HETATM   12  O4  NAD X   1      -0.511  -6.530  -7.512  1.00 20.00    -0.331  OA
BRANCH  10  13
HETATM   13  N1  NAD X   1       0.102  -8.057  -9.271  1.00 20.00    -0.270   N
HETATM   14  C6  NAD X   1       0.428  -7.877 -10.602  1.00 20.00     0.182   A
HETATM   15  N2  NAD X   1       1.515  -8.514 -11.018  1.00 20.00    -0.219  NA
HETATM   16  C7  NAD X   1       1.929  -9.212  -9.886  1.00 20.00     0.155   A
HETATM   17  C8  NAD X   1       3.017 -10.026  -9.653  1.00 20.00     0.206   A
HETATM   18 C10  NAD X   1       1.086  -8.933  -8.815  1.00 20.00     0.170   A
HETATM   19  N3  NAD X   1       3.949 -10.300 -10.553  1.00 20.00    -0.125   N
HETATM   20  N4  NAD X   1       3.171 -10.498  -8.427  1.00 20.00    -0.202  NA
HETATM   21  C9  NAD X   1       2.260 -10.219  -7.498  1.00 20.00     0.202   A
HETATM   22  N5  NAD X   1       1.224  -9.410  -7.566  1.00 20.00    -0.205  NA
ENDBRANCH  10  13
ENDBRANCH   5   6
ENDBRANCH   4   5
ENDBRANCH   1   4
BRANCH   1  23
HETATM   23  O7  NAD X   1      -1.281  -2.627  -3.579  1.00 20.00    -0.180  OA
BRANCH  23  24
HETATM   24  P2  NAD X   1       0.127  -2.832  -3.111  1.00 20.00     0.418   P
HETATM   25  O8  NAD X   1       0.304  -4.318  -3.086  1.00 20.00    -0.624  OA
HETATM   26  O9  NAD X   1       0.634  -1.945  -2.027  1.00 20.00    -0.624  OA
BRANCH  24  27
HETATM   27 O10  NAD X   1       0.892  -2.619  -4.509  1.00 20.00    -0.268  OA
BRANCH  27  28
HETATM   28 C11  NAD X   1       0.240  -2.468  -5.766  1.00 20.00     0.187   C
BRANCH  28  29
HETATM   29 C12  NAD X   1      -0.796  -3.593  -5.899  1.00 20.00     0.181   C
HETATM   30 O11  NAD X   1      -1.983  -3.103  -6.592  1.00 20.00    -0.331  OA
HETATM   31 C15  NAD X   1      -2.310  -4.145  -7.509  1.00 20.00     0.239   C
HETATM   32 C14  NAD X   1      -0.978  -4.665  -7.988  1.00 20.00     0.234   C
HETATM   33 C13  NAD X   1      -0.214  -4.751  -6.710  1.00 20.00     0.216   C
HETATM   34 O13  NAD X   1      -1.178  -5.949  -8.501  1.00 20.00    -0.216  OA
HETATM   35 O12  NAD X   1      -0.560  -5.909  -6.043  1.00 20.00    -0.218  OA
BRANCH  31  36
HETATM   36  N6  NAD X   1      -3.186  -3.662  -8.562  1.00 20.00    -0.301   N
HETATM   37 C16  NAD X   1      -4.244  -2.858  -8.159  1.00 20.00     0.082   C
HETATM   38 C17  NAD X   1      -5.169  -2.202  -8.917  1.00 20.00     0.063   C
HETATM   39 C19  NAD X   1      -5.014  -2.613 -10.210  1.00 20.00     0.007   C
HETATM   40 C20  NAD X   1      -4.057  -3.526 -10.730  1.00 20.00     0.019   C
HETATM   41 C21  NAD X   1      -3.072  -4.055  -9.846  1.00 20.00     0.078   C
BRANCH  38  42
HETATM   42 C18  NAD X   1      -6.302  -1.373  -8.470  1.00 20.00     0.234   C
HETATM   43  N7  NAD X   1      -7.243  -0.904  -9.275  1.00 20.00    -0.118   N
HETATM   44 O14  NAD X   1      -6.428  -0.896  -7.226  1.00 20.00    -0.167  OA
ENDBRANCH  38  42
ENDBRANCH  31  36
ENDBRANCH  28  29
ENDBRANCH  27  28
ENDBRANCH  24  27
ENDBRANCH  23  24
ENDBRANCH   1  23
TORSDOF 11