ROOT
HETATM    1  P1  NAD X   1       3.678  -3.953  -6.355  1.00 20.00     0.418   P
HETATM    2  O1  NAD X   1       4.925  -3.981  -7.220  1.00 20.00    -0.624  OA
HETATM    3  O2  NAD X   1       3.352  -2.680  -5.637  1.00 20.00    -0.624  OA
ENDROOT
BRANCH   1   4
HETATM    4  O3  NAD X   1       3.845  -5.048  -5.127  1.00 20.00    -0.268  OA
BRANCH   4   5
HETATM    5  C1  NAD X   1       4.434  -6.376  -5.158  1.00 20.00     0.187   C
BRANCH   5   6
HETATM    6  C2  NAD X   1       5.466  -6.514  -4.072  1.00 20.00     0.181   C
HETATM    7  C3  NAD X   1       5.879  -7.983  -3.824  1.00 20.00     0.216   C
HETATM    8  C4  NAD X   1       5.819  -8.156  -2.296  1.00 20.00     0.234   C
HETATM    9  O5  NAD X   1       7.228  -8.119  -4.338  1.00 20.00    -0.218  OA
HETATM   10  C5  NAD X   1       5.849  -6.693  -1.781  1.00 20.00     0.241   C
HETATM   11  O6  NAD X   1       6.901  -8.955  -1.883  1.00 20.00    -0.216  OA
HETATM   12  O4  NAD X   1       5.064  -5.990  -2.752  1.00 20.00    -0.331  OA
BRANCH  10  13
HETATM   13  N1  NAD X   1       5.311  -6.489  -0.409  1.00 20.00    -0.270   N
HETATM   14  C6  NAD X   1       4.155  -6.390   0.343  1.00 20.00     0.182   A
HETATM   15  N2  NAD X   1       4.331  -6.147   1.635  1.00 20.00    -0.219  NA
HETATM   16  C7  NAD X   1       5.714  -6.030   1.753  1.00 20.00     0.155   A
HETATM   17  C8  NAD X   1       6.530  -5.820   2.844  1.00 20.00     0.206   A
HETATM   18 C10  NAD X   1       6.320  -6.248   0.520  1.00 20.00     0.170   A
HETATM   19  N3  NAD X   1       6.094  -5.692   4.087  1.00 20.00    -0.125   N
HETATM   20  N4  NAD X   1       7.836  -5.825   2.635  1.00 20.00    -0.202  NA
HETATM   21  C9  NAD X   1       8.301  -5.975   1.397  1.00 20.00     0.202   A
HETATM   22  N5  NAD X   1       7.644  -6.249   0.289  1.00 20.00    -0.205  NA
ENDBRANCH  10  13
ENDBRANCH   5   6
ENDBRANCH   4   5
ENDBRANCH   1   4
BRANCH   1  23
HETATM   23  O7  NAD X   1       2.747  -4.570  -7.387  1.00 20.00    -0.180  OA
BRANCH  23  24
HETATM   24  P2  NAD X   1       2.931  -5.380  -8.632  1.00 20.00     0.418   P
HETATM   25  O8  NAD X   1       1.539  -5.678  -9.098  1.00 20.00    -0.624  OA
HETATM   26  O9  NAD X   1       4.015  -6.401  -8.644  1.00 20.00    -0.624  OA
BRANCH  24  27
HETATM   27 O10  NAD X   1       3.181  -4.185  -9.678  1.00 20.00    -0.268  OA
BRANCH  27  28
HETATM   28 C11  NAD X   1       2.185  -3.249 -10.080  1.00 20.00     0.187   C
BRANCH  28  29
HETATM   29 C12  NAD X   1       1.367  -2.868  -8.838  1.00 20.00     0.181   C
HETATM   30 O11  NAD X   1       1.119  -4.049  -8.018  1.00 20.00    -0.331  OA
HETATM   31 C15  NAD X   1       1.355  -3.608  -6.684  1.00 20.00     0.239   C
HETATM   32 C14  NAD X   1       2.521  -2.658  -6.796  1.00 20.00     0.234   C
HETATM   33 C13  NAD X   1       2.138  -1.854  -7.992  1.00 20.00     0.216   C
HETATM   34 O13  NAD X   1       2.520  -1.842  -5.662  1.00 20.00    -0.216  OA
HETATM   35 O12  NAD X   1       1.229  -0.883  -7.621  1.00 20.00    -0.218  OA
BRANCH  31  36
HETATM   36  N6  NAD X   1       1.573  -4.732  -5.790  1.00 20.00    -0.301   N
HETATM   37 C16  NAD X   1       2.838  -5.305  -5.823  1.00 20.00     0.082   C
HETATM   38 C17  NAD X   1       3.354  -6.305  -5.052  1.00 20.00     0.063   C
HETATM   39 C19  NAD X   1       2.334  -6.827  -4.310  1.00 20.00     0.007   C
HETATM   40 C20  NAD X   1       0.973  -6.417  -4.281  1.00 20.00     0.019   C
HETATM   41 C21  NAD X   1       0.588  -5.282  -5.053  1.00 20.00     0.078   C
BRANCH  38  42
HETATM   42 C18  NAD X   1       4.692  -6.918  -5.118  1.00 20.00     0.234   C
HETATM   43  N7  NAD X   1       5.767  -6.306  -5.590  1.00 20.00    -0.118   N
HETATM   44 O14  NAD X   1       4.936  -8.202  -4.831  1.00 20.00    -0.167  OA
ENDBRANCH  38  42
ENDBRANCH  31  36
ENDBRANCH  28  29
ENDBRANCH  27  28
ENDBRANCH  24  27
ENDBRANCH  23  24
ENDBRANCH   1  23
TORSDOF 11