ROOT
HETATM    1  P1  NAD X   1       1.879  -2.900  -7.653  1.00 20.00     0.418   P
HETATM    2  O1  NAD X   1       2.319  -3.491  -8.979  1.00 20.00    -0.624  OA
HETATM    3  O2  NAD X   1       2.763  -1.874  -7.015  1.00 20.00    -0.624  OA
ENDROOT
BRANCH   1   4
HETATM    4  O3  NAD X   1       1.813  -4.101  -6.518  1.00 20.00    -0.268  OA
BRANCH   4   5
HETATM    5  C1  NAD X   1       2.288  -5.471  -6.607  1.00 20.00     0.187   C
BRANCH   5   6
HETATM    6  C2  NAD X   1       3.764  -5.529  -6.322  1.00 20.00     0.181   C
HETATM    7  C3  NAD X   1       4.620  -5.002  -7.497  1.00 20.00     0.216   C
HETATM    8  C4  NAD X   1       5.714  -6.066  -7.695  1.00 20.00     0.234   C
HETATM    9  O5  NAD X   1       5.164  -3.730  -7.066  1.00 20.00    -0.218  OA
HETATM   10  C5  NAD X   1       5.688  -6.842  -6.352  1.00 20.00     0.241   C
HETATM   11  O6  NAD X   1       6.931  -5.422  -7.987  1.00 20.00    -0.216  OA
HETATM   12  O4  NAD X   1       4.294  -6.873  -6.021  1.00 20.00    -0.331  OA
BRANCH  10  13
HETATM   13  N1  NAD X   1       6.257  -8.216  -6.399  1.00 20.00    -0.270   N
HETATM   14  C6  NAD X   1       7.288  -9.023  -5.955  1.00 20.00     0.182   A
HETATM   15  N2  NAD X   1       7.275 -10.270  -6.407  1.00 20.00    -0.219  NA
HETATM   16  C7  NAD X   1       6.171 -10.291  -7.256  1.00 20.00     0.155   A
HETATM   17  C8  NAD X   1       5.600 -11.303  -7.997  1.00 20.00     0.206   A
HETATM   18 C10  NAD X   1       5.538  -9.053  -7.250  1.00 20.00     0.170   A
HETATM   19  N3  NAD X   1       6.041 -12.551  -8.020  1.00 20.00    -0.125   N
HETATM   20  N4  NAD X   1       4.494 -11.017  -8.665  1.00 20.00    -0.202  NA
HETATM   21  C9  NAD X   1       4.017  -9.775  -8.640  1.00 20.00     0.202   A
HETATM   22  N5  NAD X   1       4.420  -8.743  -7.928  1.00 20.00    -0.205  NA
ENDBRANCH  10  13
ENDBRANCH   5   6
ENDBRANCH   4   5
ENDBRANCH   1   4
BRANCH   1  23
HETATM   23  O7  NAD X   1       0.449  -2.596  -8.073  1.00 20.00    -0.180  OA
BRANCH  23  24
HETATM   24  P2  NAD X   1      -0.806  -3.398  -8.221  1.00 20.00     0.418   P
HETATM   25  O8  NAD X   1      -1.208  -3.211  -9.652  1.00 20.00    -0.624  OA
HETATM   26  O9  NAD X   1      -1.789  -3.363  -7.103  1.00 20.00    -0.624  OA
BRANCH  24  27
HETATM   27 O10  NAD X   1      -0.156  -4.851  -8.442  1.00 20.00    -0.268  OA
BRANCH  27  28
HETATM   28 C11  NAD X   1      -0.075  -5.855  -7.435  1.00 20.00     0.187   C
BRANCH  28  29
HETATM   29 C12  NAD X   1      -1.408  -6.617  -7.419  1.00 20.00     0.181   C
HETATM   30 O11  NAD X   1      -2.473  -5.754  -6.919  1.00 20.00    -0.331  OA
HETATM   31 C15  NAD X   1      -3.568  -6.000  -7.799  1.00 20.00     0.239   C
HETATM   32 C14  NAD X   1      -2.935  -6.175  -9.156  1.00 20.00     0.234   C
HETATM   33 C13  NAD X   1      -1.778  -7.058  -8.835  1.00 20.00     0.216   C
HETATM   34 O13  NAD X   1      -3.841  -6.865  -9.966  1.00 20.00    -0.216  OA
HETATM   35 O12  NAD X   1      -2.210  -8.366  -8.737  1.00 20.00    -0.218  OA
BRANCH  31  36
HETATM   36  N6  NAD X   1      -4.552  -4.935  -7.722  1.00 20.00    -0.301   N
HETATM   37 C16  NAD X   1      -4.234  -3.757  -8.384  1.00 20.00     0.082   C
HETATM   38 C17  NAD X   1      -4.985  -2.631  -8.554  1.00 20.00     0.063   C
HETATM   39 C19  NAD X   1      -6.103  -2.756  -7.781  1.00 20.00     0.007   C
HETATM   40 C20  NAD X   1      -6.481  -3.852  -6.958  1.00 20.00     0.019   C
HETATM   41 C21  NAD X   1      -5.660  -5.017  -6.959  1.00 20.00     0.078   C
BRANCH  38  42
HETATM   42 C18  NAD X   1      -4.621  -1.379  -9.240  1.00 20.00     0.234   C
HETATM   43  N7  NAD X   1      -5.260  -0.896 -10.294  1.00 20.00    -0.118   N
HETATM   44 O14  NAD X   1      -3.526  -0.665  -8.953  1.00 20.00    -0.167  OA
ENDBRANCH  38  42
ENDBRANCH  31  36
ENDBRANCH  28  29
ENDBRANCH  27  28
ENDBRANCH  24  27
ENDBRANCH  23  24
ENDBRANCH   1  23
TORSDOF 11