ROOT
HETATM    1  P1  NAD X   1       3.511  -2.948  -5.703  1.00 20.00     0.418   P
HETATM    2  O1  NAD X   1       4.459  -2.659  -6.852  1.00 20.00    -0.624  OA
HETATM    3  O2  NAD X   1       4.018  -3.788  -4.571  1.00 20.00    -0.624  OA
ENDROOT
BRANCH   1   4
HETATM    4  O3  NAD X   1       2.222  -3.814  -6.268  1.00 20.00    -0.268  OA
BRANCH   4   5
HETATM    5  C1  NAD X   1       2.035  -4.437  -7.568  1.00 20.00     0.187   C
BRANCH   5   6
HETATM    6  C2  NAD X   1       2.092  -5.935  -7.440  1.00 20.00     0.181   C
HETATM    7  C3  NAD X   1       0.736  -6.550  -7.023  1.00 20.00     0.216   C
HETATM    8  C4  NAD X   1       1.079  -7.522  -5.880  1.00 20.00     0.234   C
HETATM    9  O5  NAD X   1       0.223  -7.238  -8.191  1.00 20.00    -0.218  OA
HETATM   10  C5  NAD X   1       2.604  -7.740  -6.059  1.00 20.00     0.241   C
HETATM   11  O6  NAD X   1       0.293  -8.681  -6.013  1.00 20.00    -0.216  OA
HETATM   12  O4  NAD X   1       3.072  -6.447  -6.463  1.00 20.00    -0.331  OA
BRANCH  10  13
HETATM   13  N1  NAD X   1       3.326  -8.214  -4.847  1.00 20.00    -0.270   N
HETATM   14  C6  NAD X   1       3.822  -7.838  -3.613  1.00 20.00     0.182   A
HETATM   15  N2  NAD X   1       4.461  -8.785  -2.939  1.00 20.00    -0.219  NA
HETATM   16  C7  NAD X   1       4.430  -9.873  -3.808  1.00 20.00     0.155   A
HETATM   17  C8  NAD X   1       4.887 -11.167  -3.679  1.00 20.00     0.206   A
HETATM   18 C10  NAD X   1       3.733  -9.542  -4.965  1.00 20.00     0.170   A
HETATM   19  N3  NAD X   1       5.482 -11.643  -2.596  1.00 20.00    -0.125   N
HETATM   20  N4  NAD X   1       4.642 -12.000  -4.678  1.00 20.00    -0.202  NA
HETATM   21  C9  NAD X   1       4.026 -11.551  -5.768  1.00 20.00     0.202   A
HETATM   22  N5  NAD X   1       3.482 -10.373  -5.992  1.00 20.00    -0.205  NA
ENDBRANCH  10  13
ENDBRANCH   5   6
ENDBRANCH   4   5
ENDBRANCH   1   4
BRANCH   1  23
HETATM   23  O7  NAD X   1       3.043  -1.515  -5.509  1.00 20.00    -0.180  OA
BRANCH  23  24
HETATM   24  P2  NAD X   1       2.651  -0.394  -6.421  1.00 20.00     0.418   P
HETATM   25  O8  NAD X   1       3.584   0.723  -6.071  1.00 20.00    -0.624  OA
HETATM   26  O9  NAD X   1       1.198  -0.176  -6.669  1.00 20.00    -0.624  OA
BRANCH  24  27
HETATM   27 O10  NAD X   1       3.453  -0.845  -7.739  1.00 20.00    -0.268  OA
BRANCH  27  28
HETATM   28 C11  NAD X   1       4.403  -1.907  -7.775  1.00 20.00     0.187   C
BRANCH  28  29
HETATM   29 C12  NAD X   1       3.635  -3.221  -7.971  1.00 20.00     0.181   C
HETATM   30 O11  NAD X   1       2.859  -3.533  -6.775  1.00 20.00    -0.331  OA
HETATM   31 C15  NAD X   1       1.596  -3.962  -7.277  1.00 20.00     0.239   C
HETATM   32 C14  NAD X   1       1.338  -3.076  -8.470  1.00 20.00     0.234   C
HETATM   33 C13  NAD X   1       2.666  -3.093  -9.147  1.00 20.00     0.216   C
HETATM   34 O13  NAD X   1       0.391  -3.711  -9.278  1.00 20.00    -0.216  OA
HETATM   35 O12  NAD X   1       2.791  -4.253  -9.886  1.00 20.00    -0.218  OA
BRANCH  31  36
HETATM   36  N6  NAD X   1       0.574  -3.902  -6.246  1.00 20.00    -0.301   N
HETATM   37 C16  NAD X   1       0.074  -2.640  -5.951  1.00 20.00     0.082   C
HETATM   38 C17  NAD X   1      -0.933  -2.286  -5.101  1.00 20.00     0.063   C
HETATM   39 C19  NAD X   1      -1.291  -3.398  -4.394  1.00 20.00     0.007   C
HETATM   40 C20  NAD X   1      -0.767  -4.715  -4.509  1.00 20.00     0.019   C
HETATM   41 C21  NAD X   1       0.205  -4.975  -5.518  1.00 20.00     0.078   C
BRANCH  38  42
HETATM   42 C18  NAD X   1      -1.434  -0.938  -4.783  1.00 20.00     0.234   C
HETATM   43  N7  NAD X   1      -2.676  -0.535  -5.005  1.00 20.00    -0.118   N
HETATM   44 O14  NAD X   1      -0.655   0.063  -4.357  1.00 20.00    -0.167  OA
ENDBRANCH  38  42
ENDBRANCH  31  36
ENDBRANCH  28  29
ENDBRANCH  27  28
ENDBRANCH  24  27
ENDBRANCH  23  24
ENDBRANCH   1  23
TORSDOF 11