ROOT
HETATM    1  P1  NAD X   1       1.177  -3.758  -8.366  1.00 20.00     0.418   P
HETATM    2  O1  NAD X   1       1.462  -3.779  -9.857  1.00 20.00    -0.624  OA
HETATM    3  O2  NAD X   1       0.908  -2.432  -7.724  1.00 20.00    -0.624  OA
ENDROOT
BRANCH   1   4
HETATM    4  O3  NAD X   1       2.505  -4.311  -7.552  1.00 20.00    -0.268  OA
BRANCH   4   5
HETATM    5  C1  NAD X   1       3.405  -5.397  -7.898  1.00 20.00     0.187   C
BRANCH   5   6
HETATM    6  C2  NAD X   1       4.230  -5.791  -6.703  1.00 20.00     0.181   C
HETATM    7  C3  NAD X   1       4.951  -7.145  -6.894  1.00 20.00     0.216   C
HETATM    8  C4  NAD X   1       4.668  -7.928  -5.600  1.00 20.00     0.234   C
HETATM    9  O5  NAD X   1       6.358  -6.840  -7.053  1.00 20.00    -0.218  OA
HETATM   10  C5  NAD X   1       4.237  -6.814  -4.611  1.00 20.00     0.241   C
HETATM   11  O6  NAD X   1       5.826  -8.637  -5.231  1.00 20.00    -0.216  OA
HETATM   12  O4  NAD X   1       3.483  -5.918  -5.437  1.00 20.00    -0.331  OA
BRANCH  10  13
HETATM   13  N1  NAD X   1       3.431  -7.273  -3.447  1.00 20.00    -0.270   N
HETATM   14  C6  NAD X   1       2.174  -7.677  -3.037  1.00 20.00     0.182   A
HETATM   15  N2  NAD X   1       2.053  -7.951  -1.745  1.00 20.00    -0.219  NA
HETATM   16  C7  NAD X   1       3.318  -7.667  -1.237  1.00 20.00     0.155   A
HETATM   17  C8  NAD X   1       3.849  -7.785   0.029  1.00 20.00     0.206   A
HETATM   18 C10  NAD X   1       4.167  -7.266  -2.263  1.00 20.00     0.170   A
HETATM   19  N3  NAD X   1       3.183  -8.243   1.078  1.00 20.00    -0.125   N
HETATM   20  N4  NAD X   1       5.131  -7.491   0.180  1.00 20.00    -0.202  NA
HETATM   21  C9  NAD X   1       5.828  -7.049  -0.863  1.00 20.00     0.202   A
HETATM   22  N5  NAD X   1       5.468  -6.956  -2.126  1.00 20.00    -0.205  NA
ENDBRANCH  10  13
ENDBRANCH   5   6
ENDBRANCH   4   5
ENDBRANCH   1   4
BRANCH   1  23
HETATM   23  O7  NAD X   1       0.152  -4.882  -8.378  1.00 20.00    -0.180  OA
BRANCH  23  24
HETATM   24  P2  NAD X   1      -0.193  -5.993  -9.319  1.00 20.00     0.418   P
HETATM   25  O8  NAD X   1      -0.978  -5.334 -10.410  1.00 20.00    -0.624  OA
HETATM   26  O9  NAD X   1      -0.584  -7.305  -8.732  1.00 20.00    -0.624  OA
BRANCH  24  27
HETATM   27 O10  NAD X   1       1.182  -6.060 -10.149  1.00 20.00    -0.268  OA
BRANCH  27  28
HETATM   28 C11  NAD X   1       1.629  -5.044 -11.043  1.00 20.00     0.187   C
BRANCH  28  29
HETATM   29 C12  NAD X   1       1.317  -3.683 -10.406  1.00 20.00     0.181   C
HETATM   30 O11  NAD X   1       0.004  -3.715  -9.770  1.00 20.00    -0.331  OA
HETATM   31 C15  NAD X   1       0.201  -3.056  -8.522  1.00 20.00     0.239   C
HETATM   32 C14  NAD X   1       1.574  -3.489  -8.073  1.00 20.00     0.234   C
HETATM   33 C13  NAD X   1       2.357  -3.354  -9.335  1.00 20.00     0.216   C
HETATM   34 O13  NAD X   1       2.032  -2.560  -7.136  1.00 20.00    -0.216  OA
HETATM   35 O12  NAD X   1       2.706  -2.031  -9.521  1.00 20.00    -0.218  OA
BRANCH  31  36
HETATM   36  N6  NAD X   1      -0.867  -3.367  -7.589  1.00 20.00    -0.301   N
HETATM   37 C16  NAD X   1      -0.784  -4.598  -6.950  1.00 20.00     0.082   C
HETATM   38 C17  NAD X   1      -1.584  -5.123  -5.978  1.00 20.00     0.063   C
HETATM   39 C19  NAD X   1      -2.659  -4.294  -5.830  1.00 20.00     0.007   C
HETATM   40 C20  NAD X   1      -2.926  -3.077  -6.514  1.00 20.00     0.019   C
HETATM   41 C21  NAD X   1      -1.950  -2.581  -7.427  1.00 20.00     0.078   C
BRANCH  38  42
HETATM   42 C18  NAD X   1      -1.495  -6.443  -5.329  1.00 20.00     0.234   C
HETATM   43  N7  NAD X   1      -0.377  -7.143  -5.220  1.00 20.00    -0.118   N
HETATM   44 O14  NAD X   1      -2.557  -7.132  -4.897  1.00 20.00    -0.167  OA
ENDBRANCH  38  42
ENDBRANCH  31  36
ENDBRANCH  28  29
ENDBRANCH  27  28
ENDBRANCH  24  27
ENDBRANCH  23  24
ENDBRANCH   1  23
TORSDOF 11