ROOT
HETATM    1 N01  NMB A 501      13.794  23.086   6.095  1.00 15.06    -0.236   N
HETATM    2 S02  NMB A 501      12.982  24.493   5.757  1.00 12.44     0.327   S
HETATM    3 N03  NMB A 501      11.496  23.931   5.491  1.00 13.50    -0.254   N
HETATM    4 C04  NMB A 501      11.331  23.268   4.169  1.00 16.90     0.157   C
HETATM    5 C05  NMB A 501      11.546  21.770   4.271  1.00 12.70     0.208   C
HETATM    6 C06  NMB A 501      12.533  21.343   5.333  1.00 12.56     0.208   C
HETATM    7 C07  NMB A 501      13.933  21.930   5.238  1.00 11.34     0.162   C
HETATM    8 O15  NMB A 501      13.453  25.130   4.550  1.00 13.56    -0.182  OA
HETATM    9 O30  NMB A 501      10.329  21.134   4.590  1.00 13.24    -0.218  OA
HETATM   10 O31  NMB A 501      12.555  19.935   5.337  1.00 15.08    -0.218  OA
HETATM   11 O40  NMB A 501      12.929  25.266   6.953  1.00 16.60    -0.182  OA
ENDROOT
BRANCH   1  12
HETATM   12 C08  NMB A 501      14.940  23.276   6.876  1.00 15.66     0.088   C
BRANCH  12  13
HETATM   13 C09  NMB A 501      15.823  22.346   7.634  1.00 14.71     0.018   A
HETATM   14 C10  NMB A 501      15.309  21.192   8.234  1.00 12.56     0.002   A
HETATM   15 C11  NMB A 501      16.150  20.336   8.946  1.00 19.25     0.000   A
HETATM   16 C12  NMB A 501      17.536  20.638   9.067  1.00 18.30     0.000   A
HETATM   17 C13  NMB A 501      18.067  21.798   8.473  1.00 14.23     0.000   A
HETATM   18 C14  NMB A 501      17.203  22.654   7.754  1.00 15.35     0.002   A
ENDBRANCH  12  13
ENDBRANCH   1  12
BRANCH   7  19
HETATM   19 C32  NMB A 501      14.581  22.299   3.891  1.00 11.25     0.175   C
BRANCH  19  20
HETATM   20 O33  NMB A 501      15.975  21.924   4.024  1.00 12.26    -0.329  OA
BRANCH  20  21
HETATM   21 C34  NMB A 501      16.302  20.661   4.360  1.00 12.57     0.094   A
HETATM   22 C35  NMB A 501      16.370  20.266   5.710  1.00 14.00     0.024   A
HETATM   23 C36  NMB A 501      16.717  18.956   6.071  1.00 14.78     0.002   A
HETATM   24 C37  NMB A 501      17.005  18.020   5.071  1.00 14.25     0.000   A
HETATM   25 C38  NMB A 501      16.945  18.404   3.721  1.00 17.66     0.002   A
HETATM   26 C39  NMB A 501      16.589  19.725   3.372  1.00 14.50     0.024   A
ENDBRANCH  20  21
ENDBRANCH  19  20
ENDBRANCH   7  19
BRANCH   3  27
HETATM   27 C23  NMB A 501      10.615  23.693   6.656  1.00 11.47     0.141   C
BRANCH  27  28
HETATM   28 C24  NMB A 501       9.322  24.455   6.764  1.00 12.93     0.001   A
HETATM   29 C25  NMB A 501       8.578  24.454   7.969  1.00 16.94    -0.002   A
HETATM   30 C26  NMB A 501       7.362  25.187   8.065  1.00 18.28    -0.000   A
HETATM   31 C27  NMB A 501       6.892  25.919   6.956  1.00 13.74    -0.000   A
HETATM   32 C28  NMB A 501       7.634  25.917   5.754  1.00 16.62    -0.000   A
HETATM   33 C29  NMB A 501       8.843  25.189   5.664  1.00 13.68    -0.002   A
ENDBRANCH  27  28
ENDBRANCH   3  27
BRANCH   4  34
HETATM   34 C41  NMB A 501       9.976  23.602   3.520  1.00 18.23     0.174   C
BRANCH  34  35
HETATM   35 O16  NMB A 501      10.079  24.838   2.774  1.00 20.72    -0.329  OA
BRANCH  35  36
HETATM   36 C17  NMB A 501       9.021  25.690   2.740  1.00 14.47     0.094   A
HETATM   37 C18  NMB A 501       7.719  25.217   3.006  1.00 11.79     0.024   A
HETATM   38 C19  NMB A 501       6.626  26.096   2.977  1.00 14.96     0.002   A
HETATM   39 C20  NMB A 501       6.841  27.462   2.689  1.00 14.23     0.000   A
HETATM   40 C21  NMB A 501       8.137  27.938   2.428  1.00 12.66     0.002   A
HETATM   41 C22  NMB A 501       9.217  27.050   2.453  1.00 11.31     0.024   A
ENDBRANCH  35  36
ENDBRANCH  34  35
ENDBRANCH   4  34
TORSDOF 10