ROOT
HETATM    1 N01  NMB A 501      12.394  23.031   4.974  1.00 15.06    -0.236   N
HETATM    2 S02  NMB A 501      12.213  24.144   3.755  1.00 12.44     0.327   S
HETATM    3 N03  NMB A 501      10.842  24.863   4.201  1.00 13.50    -0.254   N
HETATM    4 C04  NMB A 501       9.622  24.056   3.933  1.00 16.90     0.157   C
HETATM    5 C05  NMB A 501       9.224  23.236   5.146  1.00 12.70     0.208   C
HETATM    6 C06  NMB A 501      10.378  22.794   6.018  1.00 12.56     0.208   C
HETATM    7 C07  NMB A 501      11.471  21.981   5.342  1.00 11.34     0.162   C
HETATM    8 O15  NMB A 501      12.007  23.526   2.467  1.00 13.56    -0.182  OA
HETATM    9 O30  NMB A 501       8.374  23.994   5.976  1.00 13.24    -0.218  OA
HETATM   10 O31  NMB A 501       9.827  22.116   7.122  1.00 15.08    -0.218  OA
HETATM   11 O40  NMB A 501      13.254  25.108   3.885  1.00 16.60    -0.182  OA
ENDROOT
BRANCH   1  12
HETATM   12 C08  NMB A 501      13.720  22.631   5.172  1.00 15.66     0.088   C
BRANCH  12  13
HETATM   13 C09  NMB A 501      14.458  22.097   6.351  1.00 14.71     0.018   A
HETATM   14 C10  NMB A 501      15.173  22.948   7.201  1.00 12.56     0.002   A
HETATM   15 C11  NMB A 501      15.864  22.429   8.296  1.00 19.25     0.000   A
HETATM   16 C12  NMB A 501      15.847  21.028   8.549  1.00 18.30     0.000   A
HETATM   17 C13  NMB A 501      15.137  20.159   7.700  1.00 14.23     0.000   A
HETATM   18 C14  NMB A 501      14.441  20.699   6.597  1.00 15.35     0.002   A
ENDBRANCH  12  13
ENDBRANCH   1  12
BRANCH   7  19
HETATM   19 C32  NMB A 501      11.184  21.040   4.158  1.00 11.25     0.175   C
BRANCH  19  20
HETATM   20 O33  NMB A 501      12.305  20.122   4.120  1.00 12.26    -0.329  OA
BRANCH  20  21
HETATM   21 C34  NMB A 501      13.437  20.417   4.789  1.00 12.57     0.094   A
HETATM   22 C35  NMB A 501      13.661  21.711   5.298  1.00 14.00     0.024   A
HETATM   23 C36  NMB A 501      14.839  22.029   5.988  1.00 14.78     0.002   A
HETATM   24 C37  NMB A 501      15.816  21.045   6.174  1.00 14.25     0.000   A
HETATM   25 C38  NMB A 501      15.606  19.752   5.666  1.00 17.66     0.002   A
HETATM   26 C39  NMB A 501      14.413  19.444   4.977  1.00 14.50     0.024   A
ENDBRANCH  20  21
ENDBRANCH  19  20
ENDBRANCH   7  19
BRANCH   3  27
HETATM   27 C23  NMB A 501      10.914  25.956   5.197  1.00 11.47     0.141   C
BRANCH  27  28
HETATM   28 C24  NMB A 501      10.278  25.759   6.546  1.00 12.93     0.001   A
HETATM   29 C25  NMB A 501       9.119  26.486   6.915  1.00 16.94    -0.002   A
HETATM   30 C26  NMB A 501       8.519  26.285   8.189  1.00 18.28    -0.000   A
HETATM   31 C27  NMB A 501       9.078  25.359   9.093  1.00 13.74    -0.000   A
HETATM   32 C28  NMB A 501      10.235  24.637   8.724  1.00 16.62    -0.000   A
HETATM   33 C29  NMB A 501      10.827  24.838   7.457  1.00 13.68    -0.002   A
ENDBRANCH  27  28
ENDBRANCH   3  27
BRANCH   4  34
HETATM   34 C41  NMB A 501       8.454  24.921   3.427  1.00 18.23     0.174   C
BRANCH  34  35
HETATM   35 O16  NMB A 501       7.203  24.402   3.935  1.00 20.72    -0.329  OA
BRANCH  35  36
HETATM   36 C17  NMB A 501       6.113  24.365   3.123  1.00 14.47     0.094   A
HETATM   37 C18  NMB A 501       4.834  24.118   3.663  1.00 11.79     0.024   A
HETATM   38 C19  NMB A 501       3.707  24.085   2.827  1.00 14.96     0.002   A
HETATM   39 C20  NMB A 501       3.864  24.310   1.441  1.00 14.23     0.000   A
HETATM   40 C21  NMB A 501       5.136  24.560   0.901  1.00 12.66     0.002   A
HETATM   41 C22  NMB A 501       6.252  24.583   1.744  1.00 11.31     0.024   A
ENDBRANCH  35  36
ENDBRANCH  34  35
ENDBRANCH   4  34
TORSDOF 10