ROOT
HETATM    1 N01  NMB A 501      14.256  22.374   6.260  1.00 15.06    -0.236   N
HETATM    2 S02  NMB A 501      13.680  23.885   5.888  1.00 12.44     0.327   S
HETATM    3 N03  NMB A 501      12.187  23.529   5.398  1.00 13.50    -0.254   N
HETATM    4 C04  NMB A 501      12.126  22.937   4.034  1.00 16.90     0.157   C
HETATM    5 C05  NMB A 501      12.137  21.421   4.088  1.00 12.70     0.208   C
HETATM    6 C06  NMB A 501      12.907  20.835   5.250  1.00 12.56     0.208   C
HETATM    7 C07  NMB A 501      14.367  21.238   5.373  1.00 11.34     0.162   C
HETATM    8 O15  NMB A 501      14.390  24.494   4.788  1.00 13.56    -0.182  OA
HETATM    9 O30  NMB A 501      10.818  20.938   4.210  1.00 13.24    -0.218  OA
HETATM   10 O31  NMB A 501      12.753  19.437   5.186  1.00 15.08    -0.218  OA
HETATM   11 O40  NMB A 501      13.558  24.618   7.104  1.00 16.60    -0.182  OA
ENDROOT
BRANCH   1  12
HETATM   12 C08  NMB A 501      15.297  22.388   7.196  1.00 15.66     0.088   C
BRANCH  12  13
HETATM   13 C09  NMB A 501      15.794  21.389   8.183  1.00 14.71     0.018   A
HETATM   14 C10  NMB A 501      16.484  20.245   7.766  1.00 12.56     0.002   A
HETATM   15 C11  NMB A 501      16.937  19.317   8.704  1.00 19.25     0.000   A
HETATM   16 C12  NMB A 501      16.693  19.530  10.091  1.00 18.30     0.000   A
HETATM   17 C13  NMB A 501      15.996  20.672  10.524  1.00 14.23     0.000   A
HETATM   18 C14  NMB A 501      15.546  21.604   9.563  1.00 15.35     0.002   A
ENDBRANCH  12  13
ENDBRANCH   1  12
BRANCH   7  19
HETATM   19 C32  NMB A 501      15.238  21.563   4.145  1.00 11.25     0.175   C
BRANCH  19  20
HETATM   20 O33  NMB A 501      16.602  21.319   4.568  1.00 12.26    -0.329  OA
BRANCH  20  21
HETATM   21 C34  NMB A 501      17.013  20.060   4.818  1.00 12.57     0.094   A
HETATM   22 C35  NMB A 501      17.620  19.284   3.812  1.00 14.00     0.024   A
HETATM   23 C36  NMB A 501      18.045  17.971   4.060  1.00 14.78     0.002   A
HETATM   24 C37  NMB A 501      17.860  17.416   5.331  1.00 14.25     0.000   A
HETATM   25 C38  NMB A 501      17.250  18.179   6.341  1.00 17.66     0.002   A
HETATM   26 C39  NMB A 501      16.832  19.502   6.079  1.00 14.50     0.024   A
ENDBRANCH  20  21
ENDBRANCH  19  20
ENDBRANCH   7  19
BRANCH   3  27
HETATM   27 C23  NMB A 501      11.130  23.370   6.421  1.00 11.47     0.141   C
BRANCH  27  28
HETATM   28 C24  NMB A 501      10.555  24.596   7.076  1.00 12.93     0.001   A
HETATM   29 C25  NMB A 501      11.271  25.819   7.083  1.00 16.94    -0.002   A
HETATM   30 C26  NMB A 501      10.714  26.976   7.696  1.00 18.28    -0.000   A
HETATM   31 C27  NMB A 501       9.442  26.909   8.302  1.00 13.74    -0.000   A
HETATM   32 C28  NMB A 501       8.731  25.688   8.296  1.00 16.62    -0.000   A
HETATM   33 C29  NMB A 501       9.288  24.541   7.684  1.00 13.68    -0.002   A
ENDBRANCH  27  28
ENDBRANCH   3  27
BRANCH   4  34
HETATM   34 C41  NMB A 501      10.927  23.465   3.227  1.00 18.23     0.174   C
BRANCH  34  35
HETATM   35 O16  NMB A 501       9.710  22.824   3.678  1.00 20.72    -0.329  OA
BRANCH  35  36
HETATM   36 C17  NMB A 501       8.523  23.473   3.549  1.00 14.47     0.094   A
HETATM   37 C18  NMB A 501       7.325  22.740   3.414  1.00 11.79     0.024   A
HETATM   38 C19  NMB A 501       6.097  23.408   3.286  1.00 14.96     0.002   A
HETATM   39 C20  NMB A 501       6.070  24.821   3.304  1.00 14.23     0.000   A
HETATM   40 C21  NMB A 501       7.261  25.553   3.443  1.00 12.66     0.002   A
HETATM   41 C22  NMB A 501       8.478  24.875   3.562  1.00 11.31     0.024   A
ENDBRANCH  35  36
ENDBRANCH  34  35
ENDBRANCH   4  34
TORSDOF 10