ROOT
HETATM    1 N01  NMB A 501       9.642  23.826   6.718  1.00 15.06    -0.236   N
HETATM    2 S02  NMB A 501      10.399  24.931   5.738  1.00 12.44     0.327   S
HETATM    3 N03  NMB A 501      11.194  23.954   4.735  1.00 13.50    -0.254   N
HETATM    4 C04  NMB A 501      12.407  23.334   5.333  1.00 16.90     0.157   C
HETATM    5 C05  NMB A 501      12.099  21.970   5.922  1.00 12.70     0.208   C
HETATM    6 C06  NMB A 501      10.695  21.818   6.464  1.00 12.56     0.208   C
HETATM    7 C07  NMB A 501      10.266  22.808   7.534  1.00 11.34     0.162   C
HETATM    8 O15  NMB A 501      11.362  25.736   6.452  1.00 13.56    -0.182  OA
HETATM    9 O30  NMB A 501      12.246  20.978   4.931  1.00 13.24    -0.218  OA
HETATM   10 O31  NMB A 501      10.562  20.485   6.900  1.00 15.08    -0.218  OA
HETATM   11 O40  NMB A 501       9.398  25.594   4.972  1.00 16.60    -0.182  OA
ENDROOT
BRANCH   1  12
HETATM   12 C08  NMB A 501       8.484  24.321   7.328  1.00 15.66     0.088   C
BRANCH  12  13
HETATM   13 C09  NMB A 501       8.061  25.683   7.760  1.00 14.71     0.018   A
HETATM   14 C10  NMB A 501       8.219  26.100   9.086  1.00 12.56     0.002   A
HETATM   15 C11  NMB A 501       7.811  27.377   9.474  1.00 19.25     0.000   A
HETATM   16 C12  NMB A 501       7.228  28.259   8.520  1.00 18.30     0.000   A
HETATM   17 C13  NMB A 501       7.059  27.852   7.184  1.00 14.23     0.000   A
HETATM   18 C14  NMB A 501       7.478  26.557   6.806  1.00 15.35     0.002   A
ENDBRANCH  12  13
ENDBRANCH   1  12
BRANCH   7  19
HETATM   19 C32  NMB A 501      11.262  23.420   8.536  1.00 11.25     0.175   C
BRANCH  19  20
HETATM   20 O33  NMB A 501      12.565  23.266   7.922  1.00 12.26    -0.329  OA
BRANCH  20  21
HETATM   21 C34  NMB A 501      12.690  22.567   6.777  1.00 12.57     0.094   A
HETATM   22 C35  NMB A 501      13.497  23.042   5.724  1.00 14.00     0.024   A
HETATM   23 C36  NMB A 501      13.628  22.326   4.526  1.00 14.78     0.002   A
HETATM   24 C37  NMB A 501      12.942  21.116   4.368  1.00 14.25     0.000   A
HETATM   25 C38  NMB A 501      12.130  20.636   5.409  1.00 17.66     0.002   A
HETATM   26 C39  NMB A 501      12.011  21.365   6.612  1.00 14.50     0.024   A
ENDBRANCH  20  21
ENDBRANCH  19  20
ENDBRANCH   7  19
BRANCH   3  27
HETATM   27 C23  NMB A 501      10.470  23.404   3.568  1.00 11.47     0.141   C
BRANCH  27  28
HETATM   28 C24  NMB A 501       8.986  23.626   3.455  1.00 12.93     0.001   A
HETATM   29 C25  NMB A 501       8.099  22.533   3.292  1.00 16.94    -0.002   A
HETATM   30 C26  NMB A 501       6.696  22.752   3.199  1.00 18.28    -0.000   A
HETATM   31 C27  NMB A 501       6.182  24.063   3.267  1.00 13.74    -0.000   A
HETATM   32 C28  NMB A 501       7.068  25.152   3.427  1.00 16.62    -0.000   A
HETATM   33 C29  NMB A 501       8.461  24.929   3.521  1.00 13.68    -0.002   A
ENDBRANCH  27  28
ENDBRANCH   3  27
BRANCH   4  34
HETATM   34 C41  NMB A 501      13.575  23.266   4.333  1.00 18.23     0.174   C
BRANCH  34  35
HETATM   35 O16  NMB A 501      14.822  23.083   5.045  1.00 20.72    -0.329  OA
BRANCH  35  36
HETATM   36 C17  NMB A 501      14.893  22.167   6.046  1.00 14.47     0.094   A
HETATM   37 C18  NMB A 501      15.026  20.795   5.745  1.00 11.79     0.024   A
HETATM   38 C19  NMB A 501      15.105  19.848   6.778  1.00 14.96     0.002   A
HETATM   39 C20  NMB A 501      15.061  20.281   8.122  1.00 14.23     0.000   A
HETATM   40 C21  NMB A 501      14.933  21.647   8.425  1.00 12.66     0.002   A
HETATM   41 C22  NMB A 501      14.848  22.580   7.387  1.00 11.31     0.024   A
ENDBRANCH  35  36
ENDBRANCH  34  35
ENDBRANCH   4  34
TORSDOF 10