ROOT
HETATM    1 N01  NMB A 501      11.402  23.799   6.237  1.00 15.06    -0.236   N
HETATM    2 S02  NMB A 501      11.616  22.650   7.415  1.00 12.44     0.327   S
HETATM    3 N03  NMB A 501      12.769  21.743   6.751  1.00 13.50    -0.254   N
HETATM    4 C04  NMB A 501      12.283  20.847   5.668  1.00 16.90     0.157   C
HETATM    5 C05  NMB A 501      12.437  21.494   4.304  1.00 12.70     0.208   C
HETATM    6 C06  NMB A 501      12.310  23.001   4.301  1.00 12.56     0.208   C
HETATM    7 C07  NMB A 501      11.020  23.578   4.860  1.00 11.34     0.162   C
HETATM    8 O15  NMB A 501      10.443  21.829   7.608  1.00 13.56    -0.182  OA
HETATM    9 O30  NMB A 501      13.715  21.208   3.782  1.00 13.24    -0.218  OA
HETATM   10 O31  NMB A 501      12.549  23.434   2.983  1.00 15.08    -0.218  OA
HETATM   11 O40  NMB A 501      12.188  23.290   8.552  1.00 16.60    -0.182  OA
ENDROOT
BRANCH   1  12
HETATM   12 C08  NMB A 501      10.879  25.003   6.720  1.00 15.66     0.088   C
BRANCH  12  13
HETATM   13 C09  NMB A 501       9.540  25.648   6.614  1.00 14.71     0.018   A
HETATM   14 C10  NMB A 501       8.551  25.418   7.577  1.00 12.56     0.002   A
HETATM   15 C11  NMB A 501       7.300  26.026   7.458  1.00 19.25     0.000   A
HETATM   16 C12  NMB A 501       7.026  26.880   6.352  1.00 18.30     0.000   A
HETATM   17 C13  NMB A 501       8.009  27.116   5.374  1.00 14.23     0.000   A
HETATM   18 C14  NMB A 501       9.270  26.496   5.509  1.00 15.35     0.002   A
ENDBRANCH  12  13
ENDBRANCH   1  12
BRANCH   7  19
HETATM   19 C32  NMB A 501       9.675  22.836   4.759  1.00 11.25     0.175   C
BRANCH  19  20
HETATM   20 O33  NMB A 501       8.991  23.436   3.631  1.00 12.26    -0.329  OA
BRANCH  20  21
HETATM   21 C34  NMB A 501       8.707  24.753   3.641  1.00 12.57     0.094   A
HETATM   22 C35  NMB A 501       8.560  25.452   4.854  1.00 14.00     0.024   A
HETATM   23 C36  NMB A 501       8.257  26.821   4.875  1.00 14.78     0.002   A
HETATM   24 C37  NMB A 501       8.092  27.509   3.667  1.00 14.25     0.000   A
HETATM   25 C38  NMB A 501       8.231  26.820   2.450  1.00 17.66     0.002   A
HETATM   26 C39  NMB A 501       8.542  25.442   2.445  1.00 14.50     0.024   A
ENDBRANCH  20  21
ENDBRANCH  19  20
ENDBRANCH   7  19
BRANCH   3  27
HETATM   27 C23  NMB A 501      14.177  22.172   6.906  1.00 11.47     0.141   C
BRANCH  27  28
HETATM   28 C24  NMB A 501      15.270  21.326   6.312  1.00 12.93     0.001   A
HETATM   29 C25  NMB A 501      16.451  21.047   7.045  1.00 16.94    -0.002   A
HETATM   30 C26  NMB A 501      17.474  20.236   6.480  1.00 18.28    -0.000   A
HETATM   31 C27  NMB A 501      17.317  19.706   5.183  1.00 13.74    -0.000   A
HETATM   32 C28  NMB A 501      16.140  19.987   4.453  1.00 16.62    -0.000   A
HETATM   33 C29  NMB A 501      15.125  20.792   5.019  1.00 13.68    -0.002   A
ENDBRANCH  27  28
ENDBRANCH   3  27
BRANCH   4  34
HETATM   34 C41  NMB A 501      12.954  19.463   5.715  1.00 18.23     0.174   C
BRANCH  34  35
HETATM   35 O16  NMB A 501      14.161  19.474   4.917  1.00 20.72    -0.329  OA
BRANCH  35  36
HETATM   36 C17  NMB A 501      14.198  20.200   3.768  1.00 14.47     0.094   A
HETATM   37 C18  NMB A 501      13.238  21.207   3.534  1.00 11.79     0.024   A
HETATM   38 C19  NMB A 501      13.277  21.961   2.352  1.00 14.96     0.002   A
HETATM   39 C20  NMB A 501      14.291  21.710   1.401  1.00 14.23     0.000   A
HETATM   40 C21  NMB A 501      15.251  20.710   1.632  1.00 12.66     0.002   A
HETATM   41 C22  NMB A 501      15.196  19.961   2.812  1.00 11.31     0.024   A
ENDBRANCH  35  36
ENDBRANCH  34  35
ENDBRANCH   4  34
TORSDOF 10