ROOT
HETATM    1 CZ8  U02 A 100      12.865  24.395   5.151  1.00 52.80     0.030   C
HETATM    2 CZ7  U02 A 100      11.628  23.029   6.815  1.00 39.90     0.030   C
HETATM    3 CZ6  U02 A 100      13.057  21.891   5.108  1.00 43.60     0.030   C
HETATM    4 CZ5  U02 A 100      12.930  23.130   6.008  1.00 49.20     0.103   C
ENDROOT
BRANCH   4   5
HETATM    5 OZ5  U02 A 100      14.128  23.110   6.811  1.00 57.20    -0.289  OA
BRANCH   5   6
HETATM    6 CZ4  U02 A 100      14.872  21.935   6.860  1.00 47.70     0.383   C
HETATM    7 OZ4  U02 A 100      15.166  21.344   5.810  1.00 57.60    -0.236  OA
HETATM    8 NZ3  U02 A 100      15.197  21.495   8.066  1.00 23.90    -0.212  NA
BRANCH   8   9
HETATM    9 CZ3  U02 A 100      16.122  20.360   8.231  1.00 11.90     0.141   C
BRANCH   9  10
HETATM   10 CZ2  U02 A 100      17.242  20.509   9.273  1.00  9.40     0.116   C
BRANCH  10  11
HETATM   11 CZ1  U02 A 100      17.364  19.337  10.232  1.00 16.00     0.258   C
HETATM   12 OZ1  U02 A 100      18.234  19.292  11.101  1.00 23.80    -0.270  OA
HETATM   13 NZ1  U02 A 100      16.506  18.345  10.066  1.00 18.60    -0.212  NA
BRANCH  13  14
HETATM   14 CB5  U02 A 100      16.678  17.247  10.942  1.00 26.10     0.084   A
HETATM   15 CB4  U02 A 100      17.543  16.238  10.533  1.00 39.90     0.019   A
HETATM   16 CB3  U02 A 100      17.791  15.138  11.347  1.00 39.00     0.001   A
HETATM   17 CB2  U02 A 100      17.173  15.045  12.587  1.00 25.30    -0.004   A
HETATM   18 CB1  U02 A 100      16.287  16.034  13.002  1.00 15.10    -0.017   A
HETATM   19 CB6  U02 A 100      16.059  17.164  12.199  1.00 18.90     0.015   A
BRANCH  18  20
HETATM   20 CG1  U02 A 100      15.564  15.764  14.326  1.00 14.30     0.052   C
BRANCH  20  21
HETATM   21 CG2  U02 A 100      14.087  15.636  14.092  1.00 20.80     0.008   A
HETATM   22 CG3  U02 A 100      13.048  16.615  14.583  1.00 24.50     0.001   A
HETATM   23 CG4  U02 A 100      13.042  15.183  15.083  1.00 27.30     0.001   A
ENDBRANCH  20  21
BRANCH  20  24
HETATM   24  CA  U02 A 100      16.177  14.645  15.202  1.00 15.90     0.070   A
HETATM   25 CA2  U02 A 100      17.124  13.819  14.563  1.00 23.50     0.298   A
HETATM   26 OA2  U02 A 100      17.642  14.094  13.510  1.00 32.10    -0.259  OA
HETATM   27 OA3  U02 A 100      17.719  12.873  15.262  1.00 22.00    -0.278  OA
HETATM   28 CA4  U02 A 100      17.456  12.667  16.570  1.00 23.90     0.083   A
HETATM   29 CA5  U02 A 100      16.490  13.409  17.255  1.00 15.40     0.048   A
HETATM   30 CA6  U02 A 100      15.840  14.433  16.562  1.00 11.10     0.134   A
HETATM   31 OA6  U02 A 100      14.765  14.950  17.223  1.00  7.80    -0.190  OA
BRANCH  28  32
HETATM   32  CD  U02 A 100      18.363  11.841  17.380  1.00 22.80     0.050   C
BRANCH  32  33
HETATM   33 CD1  U02 A 100      17.683  11.400  18.686  1.00 17.10     0.007   C
HETATM   34 CD2  U02 A 100      18.464  10.258  19.372  1.00  8.50     0.000   C
ENDBRANCH  32  33
BRANCH  32  35
HETATM   35  CE  U02 A 100      19.084  13.204  17.356  1.00 17.10     0.033   C
BRANCH  35  36
HETATM   36 CE1  U02 A 100      19.319  13.851  16.007  1.00 34.10    -0.022   A
HETATM   37 CE2  U02 A 100      20.330  13.355  15.195  1.00 56.70    -0.004   A
HETATM   38 CE3  U02 A 100      20.552  13.914  13.942  1.00 65.60    -0.000   A
HETATM   39 CE4  U02 A 100      19.772  14.976  13.501  1.00 61.60    -0.000   A
HETATM   40 CE5  U02 A 100      18.772  15.474  14.327  1.00 50.00    -0.000   A
HETATM   41 CE6  U02 A 100      18.547  14.916  15.579  1.00 57.90    -0.004   A
ENDBRANCH  35  36
ENDBRANCH  32  35
ENDBRANCH  28  32
ENDBRANCH  20  24
ENDBRANCH  18  20
ENDBRANCH  13  14
ENDBRANCH  10  11
ENDBRANCH   9  10
ENDBRANCH   8   9
ENDBRANCH   5   6
ENDBRANCH   4   5
TORSDOF 13