ROOT
HETATM    1 CZ8  U02 A 100       8.215  24.313   3.573  1.00 52.80     0.030   C
HETATM    2 CZ7  U02 A 100       7.426  26.478   4.499  1.00 39.90     0.030   C
HETATM    3 CZ6  U02 A 100       6.823  25.849   2.156  1.00 43.60     0.030   C
HETATM    4 CZ5  U02 A 100       7.055  25.309   3.575  1.00 49.20     0.103   C
ENDROOT
BRANCH   4   5
HETATM    5 OZ5  U02 A 100       5.814  24.657   3.915  1.00 57.20    -0.289  OA
BRANCH   5   6
HETATM    6 CZ4  U02 A 100       4.622  25.330   3.661  1.00 47.70     0.383   C
HETATM    7 OZ4  U02 A 100       4.306  26.312   4.349  1.00 57.60    -0.236  OA
HETATM    8 NZ3  U02 A 100       3.865  24.839   2.691  1.00 23.90    -0.212  NA
BRANCH   8   9
HETATM    9 CZ3  U02 A 100       2.671  25.565   2.225  1.00 11.90     0.141   C
BRANCH   9  10
HETATM   10 CZ2  U02 A 100       1.493  24.725   1.704  1.00  9.40     0.116   C
BRANCH  10  11
HETATM   11 CZ1  U02 A 100       1.407  23.331   2.302  1.00 16.00     0.258   C
HETATM   12 OZ1  U02 A 100       0.427  22.958   2.947  1.00 23.80    -0.270  OA
HETATM   13 NZ1  U02 A 100       2.455  22.545   2.127  1.00 18.60    -0.212  NA
BRANCH  13  14
HETATM   14 CB5  U02 A 100       2.363  21.273   2.739  1.00 26.10     0.084   A
HETATM   15 CB4  U02 A 100       3.469  20.835   3.460  1.00 39.90     0.019   A
HETATM   16 CB3  U02 A 100       3.451  19.609   4.117  1.00 39.00     0.001   A
HETATM   17 CB2  U02 A 100       2.315  18.813   4.059  1.00 25.30    -0.004   A
HETATM   18 CB1  U02 A 100       1.208  19.225   3.324  1.00 15.10    -0.017   A
HETATM   19 CB6  U02 A 100       1.208  20.477   2.687  1.00 18.90     0.015   A
BRANCH  18  20
HETATM   20 CG1  U02 A 100       0.064  18.212   3.222  1.00 14.30     0.052   C
BRANCH  20  21
HETATM   21 CG2  U02 A 100      -1.211  18.906   2.844  1.00 20.80     0.008   A
HETATM   22 CG3  U02 A 100      -1.321  20.364   2.466  1.00 24.50     0.001   A
HETATM   23 CG4  U02 A 100      -2.030  19.841   3.700  1.00 27.30     0.001   A
ENDBRANCH  20  21
BRANCH  20  24
HETATM   24  CA  U02 A 100       0.374  16.940   2.397  1.00 15.90     0.070   A
HETATM   25 CA2  U02 A 100       0.992  17.158   1.149  1.00 23.50     0.298   A
HETATM   26 OA2  U02 A 100       1.500  18.204   0.833  1.00 32.10    -0.259  OA
HETATM   27 OA3  U02 A 100       1.326  16.116   0.412  1.00 22.00    -0.278  OA
HETATM   28 CA4  U02 A 100       1.099  14.846   0.811  1.00 23.90     0.083   A
HETATM   29 CA5  U02 A 100       0.440  14.555   2.009  1.00 15.40     0.048   A
HETATM   30 CA6  U02 A 100       0.078  15.624   2.833  1.00 11.10     0.134   A
HETATM   31 OA6  U02 A 100      -0.752  15.275   3.857  1.00  7.80    -0.190  OA
BRANCH  28  32
HETATM   32  CD  U02 A 100       1.771  13.731   0.131  1.00 22.80     0.050   C
BRANCH  32  33
HETATM   33 CD1  U02 A 100       1.453  13.735  -1.373  1.00 17.10     0.007   C
HETATM   34 CD2  U02 A 100       0.009  13.261  -1.647  1.00  8.50     0.000   C
ENDBRANCH  32  33
BRANCH  32  35
HETATM   35  CE  U02 A 100       0.800  13.004   1.081  1.00 17.10     0.033   C
BRANCH  35  36
HETATM   36 CE1  U02 A 100      -0.674  13.331   0.965  1.00 34.10    -0.022   A
HETATM   37 CE2  U02 A 100      -1.072  14.659   1.037  1.00 56.70    -0.004   A
HETATM   38 CE3  U02 A 100      -2.416  14.990   0.910  1.00 65.60    -0.000   A
HETATM   39 CE4  U02 A 100      -3.366  13.995   0.721  1.00 61.60    -0.000   A
HETATM   40 CE5  U02 A 100      -2.960  12.668   0.664  1.00 50.00    -0.000   A
HETATM   41 CE6  U02 A 100      -1.617  12.334   0.790  1.00 57.90    -0.004   A
ENDBRANCH  35  36
ENDBRANCH  32  35
ENDBRANCH  28  32
ENDBRANCH  20  24
ENDBRANCH  18  20
ENDBRANCH  13  14
ENDBRANCH  10  11
ENDBRANCH   9  10
ENDBRANCH   8   9
ENDBRANCH   5   6
ENDBRANCH   4   5
TORSDOF 13