ROOT
HETATM    1 CZ8  U02 A 100       6.646  26.691   2.341  1.00 52.80     0.030   C
HETATM    2 CZ7  U02 A 100       5.580  25.287   4.090  1.00 39.90     0.030   C
HETATM    3 CZ6  U02 A 100       5.511  27.778   4.300  1.00 43.60     0.030   C
HETATM    4 CZ5  U02 A 100       5.466  26.605   3.310  1.00 49.20     0.103   C
ENDROOT
BRANCH   4   5
HETATM    5 OZ5  U02 A 100       4.213  26.774   2.615  1.00 57.20    -0.289  OA
BRANCH   5   6
HETATM    6 CZ4  U02 A 100       3.075  26.177   3.150  1.00 47.70     0.383   C
HETATM    7 OZ4  U02 A 100       2.809  26.315   4.353  1.00 57.60    -0.236  OA
HETATM    8 NZ3  U02 A 100       2.347  25.449   2.317  1.00 23.90    -0.212  NA
BRANCH   8   9
HETATM    9 CZ3  U02 A 100       1.038  24.912   2.728  1.00 11.90     0.141   C
BRANCH   9  10
HETATM   10 CZ2  U02 A 100      -0.132  25.073   1.744  1.00  9.40     0.116   C
BRANCH  10  11
HETATM   11 CZ1  U02 A 100      -0.911  23.795   1.487  1.00 16.00     0.258   C
HETATM   12 OZ1  U02 A 100      -2.141  23.776   1.453  1.00 23.80    -0.270  OA
HETATM   13 NZ1  U02 A 100      -0.203  22.689   1.336  1.00 18.60    -0.212  NA
BRANCH  13  14
HETATM   14 CB5  U02 A 100      -0.961  21.508   1.149  1.00 26.10     0.084   A
HETATM   15 CB4  U02 A 100      -2.207  21.643   0.546  1.00 39.90     0.019   A
HETATM   16 CB3  U02 A 100      -3.003  20.529   0.299  1.00 39.00     0.001   A
HETATM   17 CB2  U02 A 100      -2.549  19.266   0.653  1.00 25.30    -0.004   A
HETATM   18 CB1  U02 A 100      -1.316  19.116   1.278  1.00 15.10    -0.017   A
HETATM   19 CB6  U02 A 100      -0.492  20.232   1.499  1.00 18.90     0.015   A
BRANCH  18  20
HETATM   20 CG1  U02 A 100      -0.975  17.695   1.742  1.00 14.30     0.052   C
BRANCH  20  21
HETATM   21 CG2  U02 A 100      -1.604  16.687   0.826  1.00 20.80     0.008   A
HETATM   22 CG3  U02 A 100      -1.475  16.688  -0.678  1.00 24.50     0.001   A
HETATM   23 CG4  U02 A 100      -2.834  16.873  -0.030  1.00 27.30     0.001   A
ENDBRANCH  20  21
BRANCH  20  24
HETATM   24  CA  U02 A 100       0.518  17.438   2.055  1.00 15.90     0.070   A
HETATM   25 CA2  U02 A 100       1.416  18.426   1.601  1.00 23.50     0.298   A
HETATM   26 OA2  U02 A 100       1.070  19.521   1.238  1.00 32.10    -0.259  OA
HETATM   27 OA3  U02 A 100       2.699  18.293   1.873  1.00 22.00    -0.278  OA
HETATM   28 CA4  U02 A 100       3.186  17.246   2.573  1.00 23.90     0.083   A
HETATM   29 CA5  U02 A 100       2.364  16.201   3.006  1.00 15.40     0.048   A
HETATM   30 CA6  U02 A 100       0.994  16.301   2.756  1.00 11.10     0.134   A
HETATM   31 OA6  U02 A 100       0.303  15.152   3.002  1.00  7.80    -0.190  OA
BRANCH  28  32
HETATM   32  CD  U02 A 100       4.544  17.303   3.131  1.00 22.80     0.050   C
BRANCH  32  33
HETATM   33 CD1  U02 A 100       5.116  15.890   3.327  1.00 17.10     0.007   C
HETATM   34 CD2  U02 A 100       5.914  15.781   4.645  1.00  8.50     0.000   C
ENDBRANCH  32  33
BRANCH  32  35
HETATM   35  CE  U02 A 100       3.693  17.911   4.263  1.00 17.10     0.033   C
BRANCH  35  36
HETATM   36 CE1  U02 A 100       2.401  17.207   4.627  1.00 34.10    -0.022   A
HETATM   37 CE2  U02 A 100       2.461  15.905   5.103  1.00 56.70    -0.004   A
HETATM   38 CE3  U02 A 100       1.293  15.244   5.466  1.00 65.60    -0.000   A
HETATM   39 CE4  U02 A 100       0.064  15.879   5.346  1.00 61.60    -0.000   A
HETATM   40 CE5  U02 A 100       0.013  17.178   4.856  1.00 50.00    -0.000   A
HETATM   41 CE6  U02 A 100       1.178  17.841   4.492  1.00 57.90    -0.004   A
ENDBRANCH  35  36
ENDBRANCH  32  35
ENDBRANCH  28  32
ENDBRANCH  20  24
ENDBRANCH  18  20
ENDBRANCH  13  14
ENDBRANCH  10  11
ENDBRANCH   9  10
ENDBRANCH   8   9
ENDBRANCH   5   6
ENDBRANCH   4   5
TORSDOF 13