ROOT
HETATM    1 CZ8  U02 A 100       7.696  27.621   5.230  1.00 52.80     0.030   C
HETATM    2 CZ7  U02 A 100       7.864  26.212   7.268  1.00 39.90     0.030   C
HETATM    3 CZ6  U02 A 100       7.744  28.699   7.498  1.00 43.60     0.030   C
HETATM    4 CZ5  U02 A 100       7.248  27.493   6.686  1.00 49.20     0.103   C
ENDROOT
BRANCH   4   5
HETATM    5 OZ5  U02 A 100       5.811  27.559   6.793  1.00 57.20    -0.289  OA
BRANCH   5   6
HETATM    6 CZ4  U02 A 100       5.047  27.149   5.704  1.00 47.70     0.383   C
HETATM    7 OZ4  U02 A 100       3.831  26.948   5.839  1.00 57.60    -0.236  OA
HETATM    8 NZ3  U02 A 100       5.700  26.961   4.566  1.00 23.90    -0.212  NA
BRANCH   8   9
HETATM    9 CZ3  U02 A 100       4.972  26.693   3.314  1.00 11.90     0.141   C
BRANCH   9  10
HETATM   10 CZ2  U02 A 100       4.234  25.349   3.201  1.00  9.40     0.116   C
BRANCH  10  11
HETATM   11 CZ1  U02 A 100       2.783  25.393   3.648  1.00 16.00     0.258   C
HETATM   12 OZ1  U02 A 100       2.450  25.150   4.807  1.00 23.80    -0.270  OA
HETATM   13 NZ1  U02 A 100       1.885  25.673   2.719  1.00 18.60    -0.212  NA
BRANCH  13  14
HETATM   14 CB5  U02 A 100       0.540  25.657   3.157  1.00 26.10     0.084   A
HETATM   15 CB4  U02 A 100      -0.171  24.475   2.979  1.00 39.90     0.019   A
HETATM   16 CB3  U02 A 100      -1.490  24.365   3.408  1.00 39.00     0.001   A
HETATM   17 CB2  U02 A 100      -2.106  25.444   4.026  1.00 25.30    -0.004   A
HETATM   18 CB1  U02 A 100      -1.417  26.641   4.192  1.00 15.10    -0.017   A
HETATM   19 CB6  U02 A 100      -0.074  26.747   3.792  1.00 18.90     0.015   A
BRANCH  18  20
HETATM   20 CG1  U02 A 100      -2.235  27.803   4.766  1.00 14.30     0.052   C
BRANCH  20  21
HETATM   21 CG2  U02 A 100      -3.694  27.598   4.485  1.00 20.80     0.008   A
HETATM   22 CG3  U02 A 100      -4.426  26.286   4.632  1.00 24.50     0.001   A
HETATM   23 CG4  U02 A 100      -4.306  26.943   3.270  1.00 27.30     0.001   A
ENDBRANCH  20  21
BRANCH  20  24
HETATM   24  CA  U02 A 100      -1.908  28.187   6.229  1.00 15.90     0.070   A
HETATM   25 CA2  U02 A 100      -1.184  29.384   6.400  1.00 23.50     0.298   A
HETATM   26 OA2  U02 A 100      -1.048  30.207   5.530  1.00 32.10    -0.259  OA
HETATM   27 OA3  U02 A 100      -0.910  29.795   7.623  1.00 22.00    -0.278  OA
HETATM   28 CA4  U02 A 100      -1.300  29.111   8.720  1.00 23.90     0.083   A
HETATM   29 CA5  U02 A 100      -1.971  27.888   8.627  1.00 15.40     0.048   A
HETATM   30 CA6  U02 A 100      -2.298  27.416   7.354  1.00 11.10     0.134   A
HETATM   31 OA6  U02 A 100      -2.741  26.126   7.340  1.00  7.80    -0.190  OA
BRANCH  28  32
HETATM   32  CD  U02 A 100      -1.268  29.757  10.039  1.00 22.80     0.050   C
BRANCH  32  33
HETATM   33 CD1  U02 A 100      -2.389  29.217  10.941  1.00 17.10     0.007   C
HETATM   34 CD2  U02 A 100      -3.628  30.139  10.917  1.00  8.50     0.000   C
ENDBRANCH  32  33
BRANCH  32  35
HETATM   35  CE  U02 A 100      -1.591  30.935   9.098  1.00 17.10     0.033   C
BRANCH  35  36
HETATM   36 CE1  U02 A 100      -0.592  31.257   8.006  1.00 34.10    -0.022   A
HETATM   37 CE2  U02 A 100      -0.295  30.282   7.063  1.00 56.70    -0.004   A
HETATM   38 CE3  U02 A 100       0.601  30.558   6.037  1.00 65.60    -0.000   A
HETATM   39 CE4  U02 A 100       1.209  31.805   5.955  1.00 61.60    -0.000   A
HETATM   40 CE5  U02 A 100       0.915  32.769   6.911  1.00 50.00    -0.000   A
HETATM   41 CE6  U02 A 100       0.020  32.496   7.938  1.00 57.90    -0.004   A
ENDBRANCH  35  36
ENDBRANCH  32  35
ENDBRANCH  28  32
ENDBRANCH  20  24
ENDBRANCH  18  20
ENDBRANCH  13  14
ENDBRANCH  10  11
ENDBRANCH   9  10
ENDBRANCH   8   9
ENDBRANCH   5   6
ENDBRANCH   4   5
TORSDOF 13