ROOT
HETATM    1 CZ8  U02 A 100      10.383  26.207   5.797  1.00 52.80     0.030   C
HETATM    2 CZ7  U02 A 100      10.348  24.162   7.206  1.00 39.90     0.030   C
HETATM    3 CZ6  U02 A 100      12.397  25.595   7.166  1.00 43.60     0.030   C
HETATM    4 CZ5  U02 A 100      10.862  25.606   7.120  1.00 49.20     0.103   C
ENDROOT
BRANCH   4   5
HETATM    5 OZ5  U02 A 100      10.479  26.438   8.234  1.00 57.20    -0.289  OA
BRANCH   5   6
HETATM    6 CZ4  U02 A 100       9.390  27.292   8.079  1.00 47.70     0.383   C
HETATM    7 OZ4  U02 A 100       9.554  28.520   8.126  1.00 57.60    -0.236  OA
HETATM    8 NZ3  U02 A 100       8.209  26.715   7.920  1.00 23.90    -0.212  NA
BRANCH   8   9
HETATM    9 CZ3  U02 A 100       7.019  27.513   7.579  1.00 11.90     0.141   C
BRANCH   9  10
HETATM   10 CZ2  U02 A 100       6.612  27.576   6.098  1.00  9.40     0.116   C
BRANCH  10  11
HETATM   11 CZ1  U02 A 100       5.311  28.316   5.838  1.00 16.00     0.258   C
HETATM   12 OZ1  U02 A 100       5.216  29.185   4.972  1.00 23.80    -0.270  OA
HETATM   13 NZ1  U02 A 100       4.288  28.006   6.615  1.00 18.60    -0.212  NA
BRANCH  13  14
HETATM   14 CB5  U02 A 100       3.106  28.748   6.382  1.00 26.10     0.084   A
HETATM   15 CB4  U02 A 100       2.030  28.069   5.821  1.00 39.90     0.019   A
HETATM   16 CB3  U02 A 100       0.822  28.717   5.586  1.00 39.00     0.001   A
HETATM   17 CB2  U02 A 100       0.683  30.057   5.919  1.00 25.30    -0.004   A
HETATM   18 CB1  U02 A 100       1.756  30.758   6.460  1.00 15.10    -0.017   A
HETATM   19 CB6  U02 A 100       2.968  30.101   6.731  1.00 18.90     0.015   A
BRANCH  18  20
HETATM   20 CG1  U02 A 100       1.532  32.260   6.665  1.00 14.30     0.052   C
BRANCH  20  21
HETATM   21 CG2  U02 A 100       2.698  33.036   6.128  1.00 20.80     0.008   A
HETATM   22 CG3  U02 A 100       4.030  32.438   5.742  1.00 24.50     0.001   A
HETATM   23 CG4  U02 A 100       3.946  33.443   6.874  1.00 27.30     0.001   A
ENDBRANCH  20  21
BRANCH  20  24
HETATM   24  CA  U02 A 100       0.147  32.792   6.226  1.00 15.90     0.070   A
HETATM   25 CA2  U02 A 100      -0.939  31.921   6.447  1.00 23.50     0.298   A
HETATM   26 OA2  U02 A 100      -0.879  30.951   7.160  1.00 32.10    -0.259  OA
HETATM   27 OA3  U02 A 100      -2.155  32.327   6.137  1.00 22.00    -0.278  OA
HETATM   28 CA4  U02 A 100      -2.399  33.549   5.618  1.00 23.90     0.083   A
HETATM   29 CA5  U02 A 100      -1.367  34.444   5.320  1.00 15.40     0.048   A
HETATM   30 CA6  U02 A 100      -0.061  34.067   5.642  1.00 11.10     0.134   A
HETATM   31 OA6  U02 A 100       0.895  34.885   5.117  1.00  7.80    -0.190  OA
BRANCH  28  32
HETATM   32  CD  U02 A 100      -3.769  34.080   5.599  1.00 22.80     0.050   C
BRANCH  32  33
HETATM   33 CD1  U02 A 100      -4.786  32.959   5.333  1.00 17.10     0.007   C
HETATM   34 CD2  U02 A 100      -5.848  33.393   4.298  1.00  8.50     0.000   C
ENDBRANCH  32  33
BRANCH  32  35
HETATM   35  CE  U02 A 100      -3.123  34.783   4.389  1.00 17.10     0.033   C
BRANCH  35  36
HETATM   36 CE1  U02 A 100      -1.649  35.121   4.477  1.00 34.10    -0.022   A
HETATM   37 CE2  U02 A 100      -0.896  35.137   3.311  1.00 56.70    -0.004   A
HETATM   38 CE3  U02 A 100       0.453  35.467   3.359  1.00 65.60    -0.000   A
HETATM   39 CE4  U02 A 100       1.056  35.772   4.573  1.00 61.60    -0.000   A
HETATM   40 CE5  U02 A 100       0.297  35.740   5.736  1.00 50.00    -0.000   A
HETATM   41 CE6  U02 A 100      -1.052  35.411   5.691  1.00 57.90    -0.004   A
ENDBRANCH  35  36
ENDBRANCH  32  35
ENDBRANCH  28  32
ENDBRANCH  20  24
ENDBRANCH  18  20
ENDBRANCH  13  14
ENDBRANCH  10  11
ENDBRANCH   9  10
ENDBRANCH   8   9
ENDBRANCH   5   6
ENDBRANCH   4   5
TORSDOF 13