ROOT
HETATM    1  P1  NAD X   1      -3.762  -6.274  -8.892  1.00 20.00     0.418   P
HETATM    2  O1  NAD X   1      -5.001  -6.853  -9.548  1.00 20.00    -0.624  OA
HETATM    3  O2  NAD X   1      -2.427  -6.684  -9.432  1.00 20.00    -0.624  OA
ENDROOT
BRANCH   1   4
HETATM    4  O3  NAD X   1      -3.700  -6.769  -7.315  1.00 20.00    -0.268  OA
BRANCH   4   5
HETATM    5  C1  NAD X   1      -4.648  -7.582  -6.573  1.00 20.00     0.187   C
BRANCH   5   6
HETATM    6  C2  NAD X   1      -4.501  -7.335  -5.096  1.00 20.00     0.181   C
HETATM    7  C3  NAD X   1      -5.493  -6.273  -4.567  1.00 20.00     0.216   C
HETATM    8  C4  NAD X   1      -4.634  -5.324  -3.714  1.00 20.00     0.234   C
HETATM    9  O5  NAD X   1      -6.472  -6.988  -3.773  1.00 20.00    -0.218  OA
HETATM   10  C5  NAD X   1      -3.361  -6.165  -3.436  1.00 20.00     0.241   C
HETATM   11  O6  NAD X   1      -5.362  -4.950  -2.569  1.00 20.00    -0.216  OA
HETATM   12  O4  NAD X   1      -3.167  -6.877  -4.664  1.00 20.00    -0.331  OA
BRANCH  10  13
HETATM   13  N1  NAD X   1      -2.147  -5.385  -3.073  1.00 20.00    -0.270   N
HETATM   14  C6  NAD X   1      -0.768  -5.423  -2.989  1.00 20.00     0.182   A
HETATM   15  N2  NAD X   1      -0.192  -4.326  -2.515  1.00 20.00    -0.219  NA
HETATM   16  C7  NAD X   1      -1.273  -3.501  -2.217  1.00 20.00     0.155   A
HETATM   17  C8  NAD X   1      -1.339  -2.212  -1.732  1.00 20.00     0.206   A
HETATM   18 C10  NAD X   1      -2.465  -4.128  -2.562  1.00 20.00     0.170   A
HETATM   19  N3  NAD X   1      -0.283  -1.464  -1.453  1.00 20.00    -0.125   N
HETATM   20  N4  NAD X   1      -2.540  -1.669  -1.615  1.00 20.00    -0.202  NA
HETATM   21  C9  NAD X   1      -3.618  -2.392  -1.911  1.00 20.00     0.202   A
HETATM   22  N5  NAD X   1      -3.693  -3.594  -2.442  1.00 20.00    -0.205  NA
ENDBRANCH  10  13
ENDBRANCH   5   6
ENDBRANCH   4   5
ENDBRANCH   1   4
BRANCH   1  23
HETATM   23  O7  NAD X   1      -4.234  -4.828  -8.893  1.00 20.00    -0.180  OA
BRANCH  23  24
HETATM   24  P2  NAD X   1      -4.115  -3.672  -7.950  1.00 20.00     0.418   P
HETATM   25  O8  NAD X   1      -5.272  -3.829  -7.012  1.00 20.00    -0.624  OA
HETATM   26  O9  NAD X   1      -3.714  -2.353  -8.514  1.00 20.00    -0.624  OA
BRANCH  24  27
HETATM   27 O10  NAD X   1      -3.025  -4.281  -6.937  1.00 20.00    -0.268  OA
BRANCH  27  28
HETATM   28 C11  NAD X   1      -3.198  -5.492  -6.206  1.00 20.00     0.187   C
BRANCH  28  29
HETATM   29 C12  NAD X   1      -2.355  -6.579  -6.886  1.00 20.00     0.181   C
HETATM   30 O11  NAD X   1      -0.935  -6.332  -6.655  1.00 20.00    -0.331  OA
HETATM   31 C15  NAD X   1      -0.401  -7.615  -6.340  1.00 20.00     0.239   C
HETATM   32 C14  NAD X   1      -1.476  -8.287  -5.523  1.00 20.00     0.234   C
HETATM   33 C13  NAD X   1      -2.700  -7.951  -6.306  1.00 20.00     0.216   C
HETATM   34 O13  NAD X   1      -1.253  -9.665  -5.571  1.00 20.00    -0.216  OA
HETATM   35 O12  NAD X   1      -2.811  -8.813  -7.379  1.00 20.00    -0.218  OA
BRANCH  31  36
HETATM   36  N6  NAD X   1       0.884  -7.500  -5.673  1.00 20.00    -0.301   N
HETATM   37 C16  NAD X   1       1.780  -6.593  -6.221  1.00 20.00     0.082   C
HETATM   38 C17  NAD X   1       3.012  -6.215  -5.772  1.00 20.00     0.063   C
HETATM   39 C19  NAD X   1       3.346  -7.036  -4.734  1.00 20.00     0.007   C
HETATM   40 C20  NAD X   1       2.574  -8.085  -4.164  1.00 20.00     0.019   C
HETATM   41 C21  NAD X   1       1.254  -8.302  -4.655  1.00 20.00     0.078   C
BRANCH  38  42
HETATM   42 C18  NAD X   1       3.961  -5.267  -6.381  1.00 20.00     0.234   C
HETATM   43  N7  NAD X   1       3.603  -4.225  -7.114  1.00 20.00    -0.118   N
HETATM   44 O14  NAD X   1       5.289  -5.434  -6.369  1.00 20.00    -0.167  OA
ENDBRANCH  38  42
ENDBRANCH  31  36
ENDBRANCH  28  29
ENDBRANCH  27  28
ENDBRANCH  24  27
ENDBRANCH  23  24
ENDBRANCH   1  23
TORSDOF 11