ROOT
HETATM    1  P1  NAD X   1       0.433  -7.119  -6.375  1.00 20.00     0.418   P
HETATM    2  O1  NAD X   1       1.132  -8.153  -7.237  1.00 20.00    -0.624  OA
HETATM    3  O2  NAD X   1       0.883  -5.695  -6.486  1.00 20.00    -0.624  OA
ENDROOT
BRANCH   1   4
HETATM    4  O3  NAD X   1       0.693  -7.475  -4.781  1.00 20.00    -0.268  OA
BRANCH   4   5
HETATM    5  C1  NAD X   1       1.805  -8.183  -4.171  1.00 20.00     0.187   C
BRANCH   5   6
HETATM    6  C2  NAD X   1       1.729  -8.077  -2.672  1.00 20.00     0.181   C
HETATM    7  C3  NAD X   1       2.496  -6.854  -2.119  1.00 20.00     0.216   C
HETATM    8  C4  NAD X   1       3.336  -7.409  -0.955  1.00 20.00     0.234   C
HETATM    9  O5  NAD X   1       1.491  -5.912  -1.668  1.00 20.00    -0.218  OA
HETATM   10  C5  NAD X   1       2.637  -8.757  -0.637  1.00 20.00     0.241   C
HETATM   11  O6  NAD X   1       3.335  -6.475   0.097  1.00 20.00    -0.216  OA
HETATM   12  O4  NAD X   1       2.256  -9.240  -1.931  1.00 20.00    -0.331  OA
BRANCH  10  13
HETATM   13  N1  NAD X   1       3.475  -9.755   0.081  1.00 20.00    -0.270   N
HETATM   14  C6  NAD X   1       3.609 -11.096   0.393  1.00 20.00     0.182   A
HETATM   15  N2  NAD X   1       4.639 -11.402   1.171  1.00 20.00    -0.219  NA
HETATM   16  C7  NAD X   1       5.218 -10.164   1.438  1.00 20.00     0.155   A
HETATM   17  C8  NAD X   1       6.341  -9.809   2.154  1.00 20.00     0.206   A
HETATM   18 C10  NAD X   1       4.527  -9.158   0.772  1.00 20.00     0.170   A
HETATM   19  N3  NAD X   1       7.145 -10.672   2.757  1.00 20.00    -0.125   N
HETATM   20  N4  NAD X   1       6.673  -8.528   2.168  1.00 20.00    -0.202  NA
HETATM   21  C9  NAD X   1       5.894  -7.644   1.550  1.00 20.00     0.202   A
HETATM   22  N5  NAD X   1       4.845  -7.852   0.782  1.00 20.00    -0.205  NA
ENDBRANCH  10  13
ENDBRANCH   5   6
ENDBRANCH   4   5
ENDBRANCH   1   4
BRANCH   1  23
HETATM   23  O7  NAD X   1      -0.985  -7.555  -6.710  1.00 20.00    -0.180  OA
BRANCH  23  24
HETATM   24  P2  NAD X   1      -1.994  -8.461  -6.077  1.00 20.00     0.418   P
HETATM   25  O8  NAD X   1      -1.902  -8.165  -4.612  1.00 20.00    -0.624  OA
HETATM   26  O9  NAD X   1      -2.114  -9.848  -6.607  1.00 20.00    -0.624  OA
BRANCH  24  27
HETATM   27 O10  NAD X   1      -3.316  -7.579  -6.320  1.00 20.00    -0.268  OA
BRANCH  27  28
HETATM   28 C11  NAD X   1      -4.147  -7.075  -5.277  1.00 20.00     0.187   C
BRANCH  28  29
HETATM   29 C12  NAD X   1      -3.851  -5.577  -5.119  1.00 20.00     0.181   C
HETATM   30 O11  NAD X   1      -4.529  -5.054  -3.938  1.00 20.00    -0.331  OA
HETATM   31 C15  NAD X   1      -3.555  -4.223  -3.312  1.00 20.00     0.239   C
HETATM   32 C14  NAD X   1      -2.248  -4.948  -3.512  1.00 20.00     0.234   C
HETATM   33 C13  NAD X   1      -2.348  -5.354  -4.944  1.00 20.00     0.216   C
HETATM   34 O13  NAD X   1      -1.215  -4.020  -3.360  1.00 20.00    -0.216  OA
HETATM   35 O12  NAD X   1      -2.015  -4.284  -5.750  1.00 20.00    -0.218  OA
BRANCH  31  36
HETATM   36  N6  NAD X   1      -3.898  -3.966  -1.924  1.00 20.00    -0.301   N
HETATM   37 C16  NAD X   1      -3.140  -3.001  -1.274  1.00 20.00     0.082   C
HETATM   38 C17  NAD X   1      -3.280  -2.496  -0.014  1.00 20.00     0.063   C
HETATM   39 C19  NAD X   1      -4.221  -3.245   0.632  1.00 20.00     0.007   C
HETATM   40 C20  NAD X   1      -4.973  -4.338   0.121  1.00 20.00     0.019   C
HETATM   41 C21  NAD X   1      -4.811  -4.693  -1.250  1.00 20.00     0.078   C
BRANCH  38  42
HETATM   42 C18  NAD X   1      -2.450  -1.488   0.669  1.00 20.00     0.234   C
HETATM   43  N7  NAD X   1      -1.482  -1.779   1.524  1.00 20.00    -0.118   N
HETATM   44 O14  NAD X   1      -2.672  -0.171   0.598  1.00 20.00    -0.167  OA
ENDBRANCH  38  42
ENDBRANCH  31  36
ENDBRANCH  28  29
ENDBRANCH  27  28
ENDBRANCH  24  27
ENDBRANCH  23  24
ENDBRANCH   1  23
TORSDOF 11