ROOT
HETATM    1  P1  NAD X   1      -4.767  -2.350  -6.623  1.00 20.00     0.418   P
HETATM    2  O1  NAD X   1      -5.382  -1.148  -7.315  1.00 20.00    -0.624  OA
HETATM    3  O2  NAD X   1      -5.171  -3.712  -7.096  1.00 20.00    -0.624  OA
ENDROOT
BRANCH   1   4
HETATM    4  O3  NAD X   1      -5.218  -2.352  -5.033  1.00 20.00    -0.268  OA
BRANCH   4   5
HETATM    5  C1  NAD X   1      -5.451  -1.225  -4.146  1.00 20.00     0.187   C
BRANCH   5   6
HETATM    6  C2  NAD X   1      -4.218  -0.366  -4.062  1.00 20.00     0.181   C
HETATM    7  C3  NAD X   1      -4.251   0.823  -5.051  1.00 20.00     0.216   C
HETATM    8  C4  NAD X   1      -2.874   0.801  -5.737  1.00 20.00     0.234   C
HETATM    9  O5  NAD X   1      -4.445   2.015  -4.250  1.00 20.00    -0.218  OA
HETATM   10  C5  NAD X   1      -2.021  -0.063  -4.773  1.00 20.00     0.241   C
HETATM   11  O6  NAD X   1      -2.426   2.124  -5.906  1.00 20.00    -0.216  OA
HETATM   12  O4  NAD X   1      -2.946  -1.063  -4.328  1.00 20.00    -0.331  OA
BRANCH  10  13
HETATM   13  N1  NAD X   1      -0.811  -0.684  -5.375  1.00 20.00    -0.270   N
HETATM   14  C6  NAD X   1       0.381  -0.427  -6.028  1.00 20.00     0.182   A
HETATM   15  N2  NAD X   1       1.086  -1.495  -6.377  1.00 20.00    -0.219  NA
HETATM   16  C7  NAD X   1       0.284  -2.556  -5.965  1.00 20.00     0.155   A
HETATM   17  C8  NAD X   1       0.472  -3.921  -6.006  1.00 20.00     0.206   A
HETATM   18 C10  NAD X   1      -0.865  -2.076  -5.345  1.00 20.00     0.170   A
HETATM   19  N3  NAD X   1       1.558  -4.511  -6.480  1.00 20.00    -0.125   N
HETATM   20  N4  NAD X   1      -0.467  -4.680  -5.463  1.00 20.00    -0.202  NA
HETATM   21  C9  NAD X   1      -1.559  -4.110  -4.959  1.00 20.00     0.202   A
HETATM   22  N5  NAD X   1      -1.831  -2.832  -4.795  1.00 20.00    -0.205  NA
ENDBRANCH  10  13
ENDBRANCH   5   6
ENDBRANCH   4   5
ENDBRANCH   1   4
BRANCH   1  23
HETATM   23  O7  NAD X   1      -3.329  -1.859  -6.685  1.00 20.00    -0.180  OA
BRANCH  23  24
HETATM   24  P2  NAD X   1      -2.146  -1.922  -5.770  1.00 20.00     0.418   P
HETATM   25  O8  NAD X   1      -2.295  -0.728  -4.877  1.00 20.00    -0.624  OA
HETATM   26  O9  NAD X   1      -0.837  -2.328  -6.352  1.00 20.00    -0.624  OA
BRANCH  24  27
HETATM   27 O10  NAD X   1      -2.711  -2.976  -4.696  1.00 20.00    -0.268  OA
BRANCH  27  28
HETATM   28 C11  NAD X   1      -3.904  -2.789  -3.939  1.00 20.00     0.187   C
BRANCH  28  29
HETATM   29 C12  NAD X   1      -4.997  -3.675  -4.553  1.00 20.00     0.181   C
HETATM   30 O11  NAD X   1      -5.037  -3.492  -6.000  1.00 20.00    -0.331  OA
HETATM   31 C15  NAD X   1      -5.168  -4.813  -6.518  1.00 20.00     0.239   C
HETATM   32 C14  NAD X   1      -4.317  -5.666  -5.611  1.00 20.00     0.234   C
HETATM   33 C13  NAD X   1      -4.701  -5.148  -4.267  1.00 20.00     0.216   C
HETATM   34 O13  NAD X   1      -4.744  -6.990  -5.743  1.00 20.00    -0.216  OA
HETATM   35 O12  NAD X   1      -5.897  -5.719  -3.878  1.00 20.00    -0.218  OA
BRANCH  31  36
HETATM   36  N6  NAD X   1      -4.798  -4.866  -7.922  1.00 20.00    -0.301   N
HETATM   37 C16  NAD X   1      -5.299  -3.851  -8.726  1.00 20.00     0.082   C
HETATM   38 C17  NAD X   1      -5.060  -3.595 -10.045  1.00 20.00     0.063   C
HETATM   39 C19  NAD X   1      -4.352  -4.647 -10.551  1.00 20.00     0.007   C
HETATM   40 C20  NAD X   1      -3.892  -5.805  -9.865  1.00 20.00     0.019   C
HETATM   41 C21  NAD X   1      -4.112  -5.894  -8.460  1.00 20.00     0.078   C
BRANCH  38  42
HETATM   42 C18  NAD X   1      -5.620  -2.526 -10.889  1.00 20.00     0.234   C
HETATM   43  N7  NAD X   1      -5.982  -1.335 -10.439  1.00 20.00    -0.118   N
HETATM   44 O14  NAD X   1      -5.946  -2.690 -12.177  1.00 20.00    -0.167  OA
ENDBRANCH  38  42
ENDBRANCH  31  36
ENDBRANCH  28  29
ENDBRANCH  27  28
ENDBRANCH  24  27
ENDBRANCH  23  24
ENDBRANCH   1  23
TORSDOF 11