ROOT
HETATM    1  P1  NAD X   1       2.993  -5.144  -5.439  1.00 20.00     0.418   P
HETATM    2  O1  NAD X   1       3.931  -5.406  -6.603  1.00 20.00    -0.624  OA
HETATM    3  O2  NAD X   1       3.232  -3.922  -4.608  1.00 20.00    -0.624  OA
ENDROOT
BRANCH   1   4
HETATM    4  O3  NAD X   1       3.128  -6.377  -4.346  1.00 20.00    -0.268  OA
BRANCH   4   5
HETATM    5  C1  NAD X   1       2.120  -6.926  -3.455  1.00 20.00     0.187   C
BRANCH   5   6
HETATM    6  C2  NAD X   1       0.799  -6.240  -3.678  1.00 20.00     0.181   C
HETATM    7  C3  NAD X   1       0.223  -6.498  -5.090  1.00 20.00     0.216   C
HETATM    8  C4  NAD X   1      -0.197  -5.109  -5.603  1.00 20.00     0.234   C
HETATM    9  O5  NAD X   1      -0.911  -7.382  -4.912  1.00 20.00    -0.218  OA
HETATM   10  C5  NAD X   1      -0.274  -4.269  -4.302  1.00 20.00     0.241   C
HETATM   11  O6  NAD X   1      -1.409  -5.229  -6.308  1.00 20.00    -0.216  OA
HETATM   12  O4  NAD X   1       0.819  -4.773  -3.524  1.00 20.00    -0.331  OA
BRANCH  10  13
HETATM   13  N1  NAD X   1      -0.165  -2.797  -4.487  1.00 20.00    -0.270   N
HETATM   14  C6  NAD X   1       0.372  -1.798  -5.278  1.00 20.00     0.182   A
HETATM   15  N2  NAD X   1       0.129  -0.557  -4.879  1.00 20.00    -0.219  NA
HETATM   16  C7  NAD X   1      -0.593  -0.735  -3.702  1.00 20.00     0.155   A
HETATM   17  C8  NAD X   1      -1.173   0.164  -2.833  1.00 20.00     0.206   A
HETATM   18 C10  NAD X   1      -0.788  -2.091  -3.459  1.00 20.00     0.170   A
HETATM   19  N3  NAD X   1      -1.147   1.478  -2.993  1.00 20.00    -0.125   N
HETATM   20  N4  NAD X   1      -1.862  -0.330  -1.817  1.00 20.00    -0.202  NA
HETATM   21  C9  NAD X   1      -1.921  -1.649  -1.646  1.00 20.00     0.202   A
HETATM   22  N5  NAD X   1      -1.478  -2.610  -2.429  1.00 20.00    -0.205  NA
ENDBRANCH  10  13
ENDBRANCH   5   6
ENDBRANCH   4   5
ENDBRANCH   1   4
BRANCH   1  23
HETATM   23  O7  NAD X   1       1.703  -5.366  -6.213  1.00 20.00    -0.180  OA
BRANCH  23  24
HETATM   24  P2  NAD X   1       0.619  -6.398  -6.196  1.00 20.00     0.418   P
HETATM   25  O8  NAD X   1       0.271  -6.605  -7.637  1.00 20.00    -0.624  OA
HETATM   26  O9  NAD X   1      -0.415  -6.302  -5.128  1.00 20.00    -0.624  OA
BRANCH  24  27
HETATM   27 O10  NAD X   1       1.527  -7.719  -6.075  1.00 20.00    -0.268  OA
BRANCH  27  28
HETATM   28 C11  NAD X   1       1.008  -9.038  -5.929  1.00 20.00     0.187   C
BRANCH  28  29
HETATM   29 C12  NAD X   1       2.062  -9.882  -5.199  1.00 20.00     0.181   C
HETATM   30 O11  NAD X   1       2.409 -11.053  -5.997  1.00 20.00    -0.331  OA
HETATM   31 C15  NAD X   1       3.829 -11.134  -5.905  1.00 20.00     0.239   C
HETATM   32 C14  NAD X   1       4.295  -9.700  -5.923  1.00 20.00     0.234   C
HETATM   33 C13  NAD X   1       3.333  -9.061  -4.980  1.00 20.00     0.216   C
HETATM   34 O13  NAD X   1       5.581  -9.661  -5.378  1.00 20.00    -0.216  OA
HETATM   35 O12  NAD X   1       3.735  -9.300  -3.680  1.00 20.00    -0.218  OA
BRANCH  31  36
HETATM   36  N6  NAD X   1       4.377 -11.962  -6.965  1.00 20.00    -0.301   N
HETATM   37 C16  NAD X   1       5.006 -13.134  -6.564  1.00 20.00     0.082   C
HETATM   38 C17  NAD X   1       5.535 -14.135  -7.325  1.00 20.00     0.063   C
HETATM   39 C19  NAD X   1       5.524 -13.719  -8.625  1.00 20.00     0.007   C
HETATM   40 C20  NAD X   1       5.030 -12.493  -9.149  1.00 20.00     0.019   C
HETATM   41 C21  NAD X   1       4.397 -11.579  -8.257  1.00 20.00     0.078   C
BRANCH  38  42
HETATM   42 C18  NAD X   1       6.221 -15.361  -6.881  1.00 20.00     0.234   C
HETATM   43  N7  NAD X   1       5.604 -16.414  -6.369  1.00 20.00    -0.118   N
HETATM   44 O14  NAD X   1       7.552 -15.490  -6.828  1.00 20.00    -0.167  OA
ENDBRANCH  38  42
ENDBRANCH  31  36
ENDBRANCH  28  29
ENDBRANCH  27  28
ENDBRANCH  24  27
ENDBRANCH  23  24
ENDBRANCH   1  23
TORSDOF 11