ROOT
HETATM    1  P1  NAD X   1       3.423  -3.251  -5.333  1.00 20.00     0.418   P
HETATM    2  O1  NAD X   1       4.275  -2.014  -5.121  1.00 20.00    -0.624  OA
HETATM    3  O2  NAD X   1       4.107  -4.583  -5.325  1.00 20.00    -0.624  OA
ENDROOT
BRANCH   1   4
HETATM    4  O3  NAD X   1       2.738  -3.186  -6.836  1.00 20.00    -0.268  OA
BRANCH   4   5
HETATM    5  C1  NAD X   1       1.940  -2.130  -7.435  1.00 20.00     0.187   C
BRANCH   5   6
HETATM    6  C2  NAD X   1       0.638  -2.686  -7.944  1.00 20.00     0.181   C
HETATM    7  C3  NAD X   1      -0.381  -2.954  -6.812  1.00 20.00     0.216   C
HETATM    8  C4  NAD X   1      -0.913  -4.371  -7.089  1.00 20.00     0.234   C
HETATM    9  O5  NAD X   1      -1.413  -1.946  -6.945  1.00 20.00    -0.218  OA
HETATM   10  C5  NAD X   1      -0.533  -4.598  -8.576  1.00 20.00     0.241   C
HETATM   11  O6  NAD X   1      -2.293  -4.403  -6.816  1.00 20.00    -0.216  OA
HETATM   12  O4  NAD X   1       0.744  -3.956  -8.687  1.00 20.00    -0.331  OA
BRANCH  10  13
HETATM   13  N1  NAD X   1      -0.455  -6.021  -9.003  1.00 20.00    -0.270   N
HETATM   14  C6  NAD X   1       0.354  -7.141  -9.043  1.00 20.00     0.182   A
HETATM   15  N2  NAD X   1      -0.168  -8.205  -9.639  1.00 20.00    -0.219  NA
HETATM   16  C7  NAD X   1      -1.411  -7.750 -10.073  1.00 20.00     0.155   A
HETATM   17  C8  NAD X   1      -2.448  -8.385 -10.723  1.00 20.00     0.206   A
HETATM   18 C10  NAD X   1      -1.601  -6.429  -9.682  1.00 20.00     0.170   A
HETATM   19  N3  NAD X   1      -2.440  -9.663 -11.067  1.00 20.00    -0.125   N
HETATM   20  N4  NAD X   1      -3.548  -7.683 -10.942  1.00 20.00    -0.202  NA
HETATM   21  C9  NAD X   1      -3.589  -6.402 -10.585  1.00 20.00     0.202   A
HETATM   22  N5  NAD X   1      -2.708  -5.699  -9.904  1.00 20.00    -0.205  NA
ENDBRANCH  10  13
ENDBRANCH   5   6
ENDBRANCH   4   5
ENDBRANCH   1   4
BRANCH   1  23
HETATM   23  O7  NAD X   1       2.343  -2.883  -4.328  1.00 20.00    -0.180  OA
BRANCH  23  24
HETATM   24  P2  NAD X   1       1.220  -3.614  -3.661  1.00 20.00     0.418   P
HETATM   25  O8  NAD X   1       0.883  -2.780  -2.464  1.00 20.00    -0.624  OA
HETATM   26  O9  NAD X   1       1.294  -5.101  -3.606  1.00 20.00    -0.624  OA
BRANCH  24  27
HETATM   27 O10  NAD X   1      -0.001  -3.078  -4.558  1.00 20.00    -0.268  OA
BRANCH  27  28
HETATM   28 C11  NAD X   1      -0.347  -3.601  -5.838  1.00 20.00     0.187   C
BRANCH  28  29
HETATM   29 C12  NAD X   1      -1.857  -3.409  -6.035  1.00 20.00     0.181   C
HETATM   30 O11  NAD X   1      -2.123  -2.100  -6.622  1.00 20.00    -0.331  OA
HETATM   31 C15  NAD X   1      -3.106  -2.355  -7.622  1.00 20.00     0.239   C
HETATM   32 C14  NAD X   1      -2.714  -3.688  -8.210  1.00 20.00     0.234   C
HETATM   33 C13  NAD X   1      -2.403  -4.476  -6.984  1.00 20.00     0.216   C
HETATM   34 O13  NAD X   1      -3.840  -4.226  -8.840  1.00 20.00    -0.216  OA
HETATM   35 O12  NAD X   1      -3.578  -4.936  -6.421  1.00 20.00    -0.218  OA
BRANCH  31  36
HETATM   36  N6  NAD X   1      -3.175  -1.267  -8.581  1.00 20.00    -0.301   N
HETATM   37 C16  NAD X   1      -4.446  -0.898  -9.000  1.00 20.00     0.082   C
HETATM   38 C17  NAD X   1      -4.824   0.126  -9.818  1.00 20.00     0.063   C
HETATM   39 C19  NAD X   1      -3.692   0.671 -10.352  1.00 20.00     0.007   C
HETATM   40 C20  NAD X   1      -2.341   0.300 -10.106  1.00 20.00     0.019   C
HETATM   41 C21  NAD X   1      -2.080  -0.714  -9.140  1.00 20.00     0.078   C
BRANCH  38  42
HETATM   42 C18  NAD X   1      -6.178   0.487 -10.272  1.00 20.00     0.234   C
HETATM   43  N7  NAD X   1      -6.687   0.140 -11.444  1.00 20.00    -0.118   N
HETATM   44 O14  NAD X   1      -6.989   1.316  -9.604  1.00 20.00    -0.167  OA
ENDBRANCH  38  42
ENDBRANCH  31  36
ENDBRANCH  28  29
ENDBRANCH  27  28
ENDBRANCH  24  27
ENDBRANCH  23  24
ENDBRANCH   1  23
TORSDOF 11