ROOT
HETATM    1  P1  NAD X   1       5.030  -6.325  -8.202  1.00 20.00     0.418   P
HETATM    2  O1  NAD X   1       5.772  -6.862  -9.412  1.00 20.00    -0.624  OA
HETATM    3  O2  NAD X   1       4.712  -4.863  -8.169  1.00 20.00    -0.624  OA
ENDROOT
BRANCH   1   4
HETATM    4  O3  NAD X   1       5.963  -6.541  -6.854  1.00 20.00    -0.268  OA
BRANCH   4   5
HETATM    5  C1  NAD X   1       5.569  -6.992  -5.531  1.00 20.00     0.187   C
BRANCH   5   6
HETATM    6  C2  NAD X   1       5.013  -8.388  -5.601  1.00 20.00     0.181   C
HETATM    7  C3  NAD X   1       5.977  -9.445  -5.012  1.00 20.00     0.216   C
HETATM    8  C4  NAD X   1       6.017 -10.569  -6.062  1.00 20.00     0.234   C
HETATM    9  O5  NAD X   1       5.388  -9.883  -3.763  1.00 20.00    -0.218  OA
HETATM   10  C5  NAD X   1       4.744 -10.299  -6.906  1.00 20.00     0.241   C
HETATM   11  O6  NAD X   1       6.041 -11.811  -5.402  1.00 20.00    -0.216  OA
HETATM   12  O4  NAD X   1       4.685  -8.868  -6.957  1.00 20.00    -0.331  OA
BRANCH  10  13
HETATM   13  N1  NAD X   1       4.752 -10.882  -8.274  1.00 20.00    -0.270   N
HETATM   14  C6  NAD X   1       4.975 -10.613  -9.612  1.00 20.00     0.182   A
HETATM   15  N2  NAD X   1       4.767 -11.625 -10.443  1.00 20.00    -0.219  NA
HETATM   16  C7  NAD X   1       4.327 -12.645  -9.603  1.00 20.00     0.155   A
HETATM   17  C8  NAD X   1       3.986 -13.957  -9.849  1.00 20.00     0.206   A
HETATM   18 C10  NAD X   1       4.325 -12.209  -8.282  1.00 20.00     0.170   A
HETATM   19  N3  NAD X   1       4.035 -14.530 -11.041  1.00 20.00    -0.125   N
HETATM   20  N4  NAD X   1       3.665 -14.707  -8.807  1.00 20.00    -0.202  NA
HETATM   21  C9  NAD X   1       3.630 -14.161  -7.593  1.00 20.00     0.202   A
HETATM   22  N5  NAD X   1       3.994 -12.954  -7.213  1.00 20.00    -0.205  NA
ENDBRANCH  10  13
ENDBRANCH   5   6
ENDBRANCH   4   5
ENDBRANCH   1   4
BRANCH   1  23
HETATM   23  O7  NAD X   1       3.951  -7.396  -8.181  1.00 20.00    -0.180  OA
BRANCH  23  24
HETATM   24  P2  NAD X   1       2.601  -7.555  -8.809  1.00 20.00     0.418   P
HETATM   25  O8  NAD X   1       1.650  -7.603  -7.653  1.00 20.00    -0.624  OA
HETATM   26  O9  NAD X   1       2.483  -8.465  -9.982  1.00 20.00    -0.624  OA
BRANCH  24  27
HETATM   27 O10  NAD X   1       2.307  -6.017  -9.173  1.00 20.00    -0.268  OA
BRANCH  27  28
HETATM   28 C11  NAD X   1       1.091  -5.547  -9.747  1.00 20.00     0.187   C
BRANCH  28  29
HETATM   29 C12  NAD X   1       0.234  -6.769 -10.104  1.00 20.00     0.181   C
HETATM   30 O11  NAD X   1       0.978  -7.664 -10.983  1.00 20.00    -0.331  OA
HETATM   31 C15  NAD X   1       0.714  -8.966 -10.466  1.00 20.00     0.239   C
HETATM   32 C14  NAD X   1       0.683  -8.783  -8.969  1.00 20.00     0.234   C
HETATM   33 C13  NAD X   1      -0.133  -7.542  -8.837  1.00 20.00     0.216   C
HETATM   34 O13  NAD X   1      -0.014  -9.862  -8.420  1.00 20.00    -0.216  OA
HETATM   35 O12  NAD X   1      -1.473  -7.858  -8.945  1.00 20.00    -0.218  OA
BRANCH  31  36
HETATM   36  N6  NAD X   1       1.694  -9.927 -10.938  1.00 20.00    -0.301   N
HETATM   37 C16  NAD X   1       1.190 -11.059 -11.565  1.00 20.00     0.082   C
HETATM   38 C17  NAD X   1       1.859 -12.081 -12.173  1.00 20.00     0.063   C
HETATM   39 C19  NAD X   1       3.190 -11.921 -11.911  1.00 20.00     0.007   C
HETATM   40 C20  NAD X   1       3.819 -10.880 -11.175  1.00 20.00     0.019   C
HETATM   41 C21  NAD X   1       3.013  -9.811 -10.687  1.00 20.00     0.078   C
BRANCH  38  42
HETATM   42 C18  NAD X   1       1.308 -13.288 -12.812  1.00 20.00     0.234   C
HETATM   43  N7  NAD X   1       0.260 -13.288 -13.621  1.00 20.00    -0.118   N
HETATM   44 O14  NAD X   1       1.726 -14.530 -12.540  1.00 20.00    -0.167  OA
ENDBRANCH  38  42
ENDBRANCH  31  36
ENDBRANCH  28  29
ENDBRANCH  27  28
ENDBRANCH  24  27
ENDBRANCH  23  24
ENDBRANCH   1  23
TORSDOF 11