ROOT
HETATM    1  P1  NAD X   1       1.022  -6.907  -7.820  1.00 20.00     0.418   P
HETATM    2  O1  NAD X   1       0.227  -7.116  -9.095  1.00 20.00    -0.624  OA
HETATM    3  O2  NAD X   1       2.515  -6.981  -7.905  1.00 20.00    -0.624  OA
ENDROOT
BRANCH   1   4
HETATM    4  O3  NAD X   1       0.645  -8.103  -6.742  1.00 20.00    -0.268  OA
BRANCH   4   5
HETATM    5  C1  NAD X   1       0.737  -8.092  -5.292  1.00 20.00     0.187   C
BRANCH   5   6
HETATM    6  C2  NAD X   1       1.425  -9.339  -4.805  1.00 20.00     0.181   C
HETATM    7  C3  NAD X   1       2.828  -9.057  -4.220  1.00 20.00     0.216   C
HETATM    8  C4  NAD X   1       3.744 -10.108  -4.872  1.00 20.00     0.234   C
HETATM    9  O5  NAD X   1       2.717  -9.242  -2.787  1.00 20.00    -0.218  OA
HETATM   10  C5  NAD X   1       2.739 -11.173  -5.382  1.00 20.00     0.241   C
HETATM   11  O6  NAD X   1       4.666 -10.569  -3.915  1.00 20.00    -0.216  OA
HETATM   12  O4  NAD X   1       1.627 -10.386  -5.825  1.00 20.00    -0.331  OA
BRANCH  10  13
HETATM   13  N1  NAD X   1       3.241 -12.051  -6.474  1.00 20.00    -0.270   N
HETATM   14  C6  NAD X   1       4.151 -13.041  -6.794  1.00 20.00     0.182   A
HETATM   15  N2  NAD X   1       4.146 -13.437  -8.061  1.00 20.00    -0.219  NA
HETATM   16  C7  NAD X   1       3.186 -12.617  -8.648  1.00 20.00     0.155   A
HETATM   17  C8  NAD X   1       2.686 -12.560  -9.932  1.00 20.00     0.206   A
HETATM   18 C10  NAD X   1       2.621 -11.779  -7.693  1.00 20.00     0.170   A
HETATM   19  N3  NAD X   1       3.064 -13.361 -10.915  1.00 20.00    -0.125   N
HETATM   20  N4  NAD X   1       1.711 -11.697 -10.165  1.00 20.00    -0.202  NA
HETATM   21  C9  NAD X   1       1.297 -10.895  -9.187  1.00 20.00     0.202   A
HETATM   22  N5  NAD X   1       1.636 -10.892  -7.915  1.00 20.00    -0.205  NA
ENDBRANCH  10  13
ENDBRANCH   5   6
ENDBRANCH   4   5
ENDBRANCH   1   4
BRANCH   1  23
HETATM   23  O7  NAD X   1       0.292  -5.650  -7.373  1.00 20.00    -0.180  OA
BRANCH  23  24
HETATM   24  P2  NAD X   1      -0.881  -5.362  -6.489  1.00 20.00     0.418   P
HETATM   25  O8  NAD X   1      -2.066  -5.416  -7.402  1.00 20.00    -0.624  OA
HETATM   26  O9  NAD X   1      -0.722  -4.312  -5.444  1.00 20.00    -0.624  OA
BRANCH  24  27
HETATM   27 O10  NAD X   1      -1.104  -6.831  -5.875  1.00 20.00    -0.268  OA
BRANCH  27  28
HETATM   28 C11  NAD X   1      -0.289  -7.959  -6.179  1.00 20.00     0.187   C
BRANCH  28  29
HETATM   29 C12  NAD X   1       1.155  -7.468  -6.347  1.00 20.00     0.181   C
HETATM   30 O11  NAD X   1       2.043  -8.596  -6.607  1.00 20.00    -0.331  OA
HETATM   31 C15  NAD X   1       2.896  -8.139  -7.653  1.00 20.00     0.239   C
HETATM   32 C14  NAD X   1       2.003  -7.306  -8.538  1.00 20.00     0.234   C
HETATM   33 C13  NAD X   1       1.249  -6.505  -7.531  1.00 20.00     0.216   C
HETATM   34 O13  NAD X   1       2.818  -6.460  -9.294  1.00 20.00    -0.216  OA
HETATM   35 O12  NAD X   1       2.025  -5.443  -7.112  1.00 20.00    -0.218  OA
BRANCH  31  36
HETATM   36  N6  NAD X   1       3.545  -9.252  -8.324  1.00 20.00    -0.301   N
HETATM   37 C16  NAD X   1       3.592  -9.188  -9.711  1.00 20.00     0.082   C
HETATM   38 C17  NAD X   1       4.199 -10.032 -10.595  1.00 20.00     0.063   C
HETATM   39 C19  NAD X   1       4.634 -11.122  -9.898  1.00 20.00     0.007   C
HETATM   40 C20  NAD X   1       4.531 -11.367  -8.501  1.00 20.00     0.019   C
HETATM   41 C21  NAD X   1       3.975 -10.350  -7.672  1.00 20.00     0.078   C
BRANCH  38  42
HETATM   42 C18  NAD X   1       4.217  -9.962 -12.066  1.00 20.00     0.234   C
HETATM   43  N7  NAD X   1       3.553 -10.789 -12.858  1.00 20.00    -0.118   N
HETATM   44 O14  NAD X   1       5.011  -9.138 -12.761  1.00 20.00    -0.167  OA
ENDBRANCH  38  42
ENDBRANCH  31  36
ENDBRANCH  28  29
ENDBRANCH  27  28
ENDBRANCH  24  27
ENDBRANCH  23  24
ENDBRANCH   1  23
TORSDOF 11