ROOT
HETATM    1  P1  NAD X   1       0.595  -6.593  -8.144  1.00 20.00     0.418   P
HETATM    2  O1  NAD X   1      -0.230  -6.928  -9.373  1.00 20.00    -0.624  OA
HETATM    3  O2  NAD X   1       1.869  -5.832  -8.341  1.00 20.00    -0.624  OA
ENDROOT
BRANCH   1   4
HETATM    4  O3  NAD X   1       1.100  -7.997  -7.431  1.00 20.00    -0.268  OA
BRANCH   4   5
HETATM    5  C1  NAD X   1       2.283  -8.240  -6.622  1.00 20.00     0.187   C
BRANCH   5   6
HETATM    6  C2  NAD X   1       3.258  -9.105  -7.374  1.00 20.00     0.181   C
HETATM    7  C3  NAD X   1       3.389  -8.704  -8.861  1.00 20.00     0.216   C
HETATM    8  C4  NAD X   1       3.279 -10.028  -9.637  1.00 20.00     0.234   C
HETATM    9  O5  NAD X   1       4.694  -8.092  -9.006  1.00 20.00    -0.218  OA
HETATM   10  C5  NAD X   1       3.574 -11.092  -8.547  1.00 20.00     0.241   C
HETATM   11  O6  NAD X   1       4.189 -10.007 -10.710  1.00 20.00    -0.216  OA
HETATM   12  O4  NAD X   1       2.945 -10.546  -7.381  1.00 20.00    -0.331  OA
BRANCH  10  13
HETATM   13  N1  NAD X   1       3.066 -12.460  -8.838  1.00 20.00    -0.270   N
HETATM   14  C6  NAD X   1       2.177 -13.439  -8.437  1.00 20.00     0.182   A
HETATM   15  N2  NAD X   1       2.213 -14.567  -9.135  1.00 20.00    -0.219  NA
HETATM   16  C7  NAD X   1       3.237 -14.344 -10.051  1.00 20.00     0.155   A
HETATM   17  C8  NAD X   1       3.738 -15.116 -11.078  1.00 20.00     0.206   A
HETATM   18 C10  NAD X   1       3.756 -13.064  -9.888  1.00 20.00     0.170   A
HETATM   19  N3  NAD X   1       3.275 -16.312 -11.405  1.00 20.00    -0.125   N
HETATM   20  N4  NAD X   1       4.690 -14.585 -11.827  1.00 20.00    -0.202  NA
HETATM   21  C9  NAD X   1       5.157 -13.375 -11.533  1.00 20.00     0.202   A
HETATM   22  N5  NAD X   1       4.728 -12.512 -10.635  1.00 20.00    -0.205  NA
ENDBRANCH  10  13
ENDBRANCH   5   6
ENDBRANCH   4   5
ENDBRANCH   1   4
BRANCH   1  23
HETATM   23  O7  NAD X   1      -0.558  -6.053  -7.313  1.00 20.00    -0.180  OA
BRANCH  23  24
HETATM   24  P2  NAD X   1      -1.688  -5.103  -7.557  1.00 20.00     0.418   P
HETATM   25  O8  NAD X   1      -1.026  -3.827  -7.977  1.00 20.00    -0.624  OA
HETATM   26  O9  NAD X   1      -2.839  -5.133  -6.612  1.00 20.00    -0.624  OA
BRANCH  24  27
HETATM   27 O10  NAD X   1      -2.085  -5.557  -9.047  1.00 20.00    -0.268  OA
BRANCH  27  28
HETATM   28 C11  NAD X   1      -2.011  -6.898  -9.523  1.00 20.00     0.187   C
BRANCH  28  29
HETATM   29 C12  NAD X   1      -2.649  -6.941 -10.918  1.00 20.00     0.181   C
HETATM   30 O11  NAD X   1      -1.984  -7.944 -11.743  1.00 20.00    -0.331  OA
HETATM   31 C15  NAD X   1      -3.051  -8.619 -12.405  1.00 20.00     0.239   C
HETATM   32 C14  NAD X   1      -4.151  -8.696 -11.375  1.00 20.00     0.234   C
HETATM   33 C13  NAD X   1      -4.127  -7.317 -10.808  1.00 20.00     0.216   C
HETATM   34 O13  NAD X   1      -5.356  -8.905 -12.050  1.00 20.00    -0.216  OA
HETATM   35 O12  NAD X   1      -4.812  -6.462 -11.649  1.00 20.00    -0.218  OA
BRANCH  31  36
HETATM   36  N6  NAD X   1      -2.618  -9.904 -12.924  1.00 20.00    -0.301   N
HETATM   37 C16  NAD X   1      -1.250 -10.145 -12.901  1.00 20.00     0.082   C
HETATM   38 C17  NAD X   1      -0.565 -11.275 -13.241  1.00 20.00     0.063   C
HETATM   39 C19  NAD X   1      -1.450 -12.140 -13.818  1.00 20.00     0.007   C
HETATM   40 C20  NAD X   1      -2.846 -11.960 -14.019  1.00 20.00     0.019   C
HETATM   41 C21  NAD X   1      -3.459 -10.777 -13.513  1.00 20.00     0.078   C
BRANCH  38  42
HETATM   42 C18  NAD X   1       0.890 -11.504 -13.233  1.00 20.00     0.234   C
HETATM   43  N7  NAD X   1       1.453 -12.702 -13.225  1.00 20.00    -0.118   N
HETATM   44 O14  NAD X   1       1.795 -10.527 -13.100  1.00 20.00    -0.167  OA
ENDBRANCH  38  42
ENDBRANCH  31  36
ENDBRANCH  28  29
ENDBRANCH  27  28
ENDBRANCH  24  27
ENDBRANCH  23  24
ENDBRANCH   1  23
TORSDOF 11