ROOT
HETATM    1  P1  NAD X   1       1.099  -5.705  -7.908  1.00 20.00     0.418   P
HETATM    2  O1  NAD X   1       1.639  -5.909  -9.311  1.00 20.00    -0.624  OA
HETATM    3  O2  NAD X   1      -0.247  -5.064  -7.762  1.00 20.00    -0.624  OA
ENDROOT
BRANCH   1   4
HETATM    4  O3  NAD X   1       2.099  -4.677  -7.086  1.00 20.00    -0.268  OA
BRANCH   4   5
HETATM    5  C1  NAD X   1       3.542  -4.536  -7.176  1.00 20.00     0.187   C
BRANCH   5   6
HETATM    6  C2  NAD X   1       4.219  -5.506  -6.246  1.00 20.00     0.181   C
HETATM    7  C3  NAD X   1       5.751  -5.556  -6.446  1.00 20.00     0.216   C
HETATM    8  C4  NAD X   1       6.091  -7.055  -6.515  1.00 20.00     0.234   C
HETATM    9  O5  NAD X   1       6.335  -4.914  -5.285  1.00 20.00    -0.218  OA
HETATM   10  C5  NAD X   1       4.842  -7.721  -5.883  1.00 20.00     0.241   C
HETATM   11  O6  NAD X   1       7.298  -7.282  -5.829  1.00 20.00    -0.216  OA
HETATM   12  O4  NAD X   1       3.763  -6.906  -6.357  1.00 20.00    -0.331  OA
BRANCH  10  13
HETATM   13  N1  NAD X   1       4.630  -9.149  -6.245  1.00 20.00    -0.270   N
HETATM   14  C6  NAD X   1       5.135 -10.430  -6.116  1.00 20.00     0.182   A
HETATM   15  N2  NAD X   1       4.461 -11.379  -6.753  1.00 20.00    -0.219  NA
HETATM   16  C7  NAD X   1       3.447 -10.674  -7.396  1.00 20.00     0.155   A
HETATM   17  C8  NAD X   1       2.394 -11.089  -8.182  1.00 20.00     0.206   A
HETATM   18 C10  NAD X   1       3.532  -9.321  -7.085  1.00 20.00     0.170   A
HETATM   19  N3  NAD X   1       2.138 -12.354  -8.478  1.00 20.00    -0.125   N
HETATM   20  N4  NAD X   1       1.545 -10.164  -8.599  1.00 20.00    -0.202  NA
HETATM   21  C9  NAD X   1       1.767  -8.887  -8.296  1.00 20.00     0.202   A
HETATM   22  N5  NAD X   1       2.684  -8.367  -7.506  1.00 20.00    -0.205  NA
ENDBRANCH  10  13
ENDBRANCH   5   6
ENDBRANCH   4   5
ENDBRANCH   1   4
BRANCH   1  23
HETATM   23  O7  NAD X   1       1.390  -7.112  -7.412  1.00 20.00    -0.180  OA
BRANCH  23  24
HETATM   24  P2  NAD X   1       1.359  -8.480  -8.021  1.00 20.00     0.418   P
HETATM   25  O8  NAD X   1       0.300  -8.400  -9.076  1.00 20.00    -0.624  OA
HETATM   26  O9  NAD X   1       1.494  -9.650  -7.109  1.00 20.00    -0.624  OA
BRANCH  24  27
HETATM   27 O10  NAD X   1       2.592  -8.332  -9.042  1.00 20.00    -0.268  OA
BRANCH  27  28
HETATM   28 C11  NAD X   1       3.396  -7.162  -9.165  1.00 20.00     0.187   C
BRANCH  28  29
HETATM   29 C12  NAD X   1       3.066  -6.502 -10.510  1.00 20.00     0.181   C
HETATM   30 O11  NAD X   1       4.183  -6.661 -11.435  1.00 20.00    -0.331  OA
HETATM   31 C15  NAD X   1       3.570  -7.016 -12.672  1.00 20.00     0.239   C
HETATM   32 C14  NAD X   1       2.419  -7.910 -12.284  1.00 20.00     0.234   C
HETATM   33 C13  NAD X   1       1.835  -7.163 -11.133  1.00 20.00     0.216   C
HETATM   34 O13  NAD X   1       1.509  -7.921 -13.344  1.00 20.00    -0.216  OA
HETATM   35 O12  NAD X   1       1.037  -6.139 -11.604  1.00 20.00    -0.218  OA
BRANCH  31  36
HETATM   36  N6  NAD X   1       4.529  -7.622 -13.578  1.00 20.00    -0.301   N
HETATM   37 C16  NAD X   1       4.782  -6.931 -14.755  1.00 20.00     0.082   C
HETATM   38 C17  NAD X   1       5.679  -7.208 -15.745  1.00 20.00     0.063   C
HETATM   39 C19  NAD X   1       6.209  -8.441 -15.493  1.00 20.00     0.007   C
HETATM   40 C20  NAD X   1       5.937  -9.304 -14.396  1.00 20.00     0.019   C
HETATM   41 C21  NAD X   1       5.062  -8.843 -13.370  1.00 20.00     0.078   C
BRANCH  38  42
HETATM   42 C18  NAD X   1       5.917  -6.476 -17.001  1.00 20.00     0.234   C
HETATM   43  N7  NAD X   1       6.122  -7.056 -18.173  1.00 20.00    -0.118   N
HETATM   44 O14  NAD X   1       6.081  -5.149 -17.067  1.00 20.00    -0.167  OA
ENDBRANCH  38  42
ENDBRANCH  31  36
ENDBRANCH  28  29
ENDBRANCH  27  28
ENDBRANCH  24  27
ENDBRANCH  23  24
ENDBRANCH   1  23
TORSDOF 11