ROOT
HETATM    1  P1  NAD X   1       3.162  -6.069  -9.908  1.00 20.00     0.418   P
HETATM    2  O1  NAD X   1       3.429  -7.386 -10.613  1.00 20.00    -0.624  OA
HETATM    3  O2  NAD X   1       3.582  -4.808 -10.597  1.00 20.00    -0.624  OA
ENDROOT
BRANCH   1   4
HETATM    4  O3  NAD X   1       4.015  -6.028  -8.492  1.00 20.00    -0.268  OA
BRANCH   4   5
HETATM    5  C1  NAD X   1       4.130  -7.047  -7.462  1.00 20.00     0.187   C
BRANCH   5   6
HETATM    6  C2  NAD X   1       3.014  -8.048  -7.594  1.00 20.00     0.181   C
HETATM    7  C3  NAD X   1       2.858  -8.582  -9.036  1.00 20.00     0.216   C
HETATM    8  C4  NAD X   1       1.351  -8.484  -9.331  1.00 20.00     0.234   C
HETATM    9  O5  NAD X   1       3.324  -9.954  -9.016  1.00 20.00    -0.218  OA
HETATM   10  C5  NAD X   1       0.729  -8.365  -7.915  1.00 20.00     0.241   C
HETATM   11  O6  NAD X   1       0.953  -9.617 -10.063  1.00 20.00    -0.216  OA
HETATM   12  O4  NAD X   1       1.678  -7.555  -7.210  1.00 20.00    -0.331  OA
BRANCH  10  13
HETATM   13  N1  NAD X   1      -0.630  -7.763  -7.865  1.00 20.00    -0.270   N
HETATM   14  C6  NAD X   1      -1.983  -8.041  -7.794  1.00 20.00     0.182   A
HETATM   15  N2  NAD X   1      -2.787  -6.986  -7.822  1.00 20.00    -0.219  NA
HETATM   16  C7  NAD X   1      -1.907  -5.916  -7.964  1.00 20.00     0.155   A
HETATM   17  C8  NAD X   1      -2.115  -4.555  -8.015  1.00 20.00     0.206   A
HETATM   18 C10  NAD X   1      -0.594  -6.375  -7.980  1.00 20.00     0.170   A
HETATM   19  N3  NAD X   1      -3.302  -3.977  -7.915  1.00 20.00    -0.125   N
HETATM   20  N4  NAD X   1      -1.045  -3.780  -8.091  1.00 20.00    -0.202  NA
HETATM   21  C9  NAD X   1       0.162  -4.335  -8.170  1.00 20.00     0.202   A
HETATM   22  N5  NAD X   1       0.503  -5.602  -8.064  1.00 20.00    -0.205  NA
ENDBRANCH  10  13
ENDBRANCH   5   6
ENDBRANCH   4   5
ENDBRANCH   1   4
BRANCH   1  23
HETATM   23  O7  NAD X   1       1.712  -6.362  -9.554  1.00 20.00    -0.180  OA
BRANCH  23  24
HETATM   24  P2  NAD X   1       0.578  -5.568  -8.984  1.00 20.00     0.418   P
HETATM   25  O8  NAD X   1      -0.347  -6.593  -8.404  1.00 20.00    -0.624  OA
HETATM   26  O9  NAD X   1       0.088  -4.398  -9.764  1.00 20.00    -0.624  OA
BRANCH  24  27
HETATM   27 O10  NAD X   1       1.237  -5.156  -7.577  1.00 20.00    -0.268  OA
BRANCH  27  28
HETATM   28 C11  NAD X   1       1.914  -6.063  -6.712  1.00 20.00     0.187   C
BRANCH  28  29
HETATM   29 C12  NAD X   1       2.312  -7.295  -7.537  1.00 20.00     0.181   C
HETATM   30 O11  NAD X   1       3.710  -7.633  -7.291  1.00 20.00    -0.331  OA
HETATM   31 C15  NAD X   1       3.711  -9.051  -7.152  1.00 20.00     0.239   C
HETATM   32 C14  NAD X   1       2.431  -9.363  -6.417  1.00 20.00     0.234   C
HETATM   33 C13  NAD X   1       1.454  -8.495  -7.137  1.00 20.00     0.216   C
HETATM   34 O13  NAD X   1       2.121 -10.706  -6.647  1.00 20.00    -0.216  OA
HETATM   35 O12  NAD X   1       1.070  -9.111  -8.312  1.00 20.00    -0.218  OA
BRANCH  31  36
HETATM   36  N6  NAD X   1       4.917  -9.513  -6.488  1.00 20.00    -0.301   N
HETATM   37 C16  NAD X   1       5.517  -8.618  -5.613  1.00 20.00     0.082   C
HETATM   38 C17  NAD X   1       6.597  -8.797  -4.799  1.00 20.00     0.063   C
HETATM   39 C19  NAD X   1       7.159 -10.001  -5.111  1.00 20.00     0.007   C
HETATM   40 C20  NAD X   1       6.718 -10.950  -6.074  1.00 20.00     0.019   C
HETATM   41 C21  NAD X   1       5.507 -10.690  -6.780  1.00 20.00     0.078   C
BRANCH  38  42
HETATM   42 C18  NAD X   1       7.236  -7.825  -3.894  1.00 20.00     0.234   C
HETATM   43  N7  NAD X   1       7.710  -8.127  -2.696  1.00 20.00    -0.118   N
HETATM   44 O14  NAD X   1       7.286  -6.509  -4.132  1.00 20.00    -0.167  OA
ENDBRANCH  38  42
ENDBRANCH  31  36
ENDBRANCH  28  29
ENDBRANCH  27  28
ENDBRANCH  24  27
ENDBRANCH  23  24
ENDBRANCH   1  23
TORSDOF 11