ROOT
HETATM    1  P1  NAD X   1      -0.297  -7.974 -10.473  1.00 20.00     0.418   P
HETATM    2  O1  NAD X   1      -1.333  -8.717 -11.296  1.00 20.00    -0.624  OA
HETATM    3  O2  NAD X   1       0.791  -7.251 -11.205  1.00 20.00    -0.624  OA
ENDROOT
BRANCH   1   4
HETATM    4  O3  NAD X   1       0.531  -9.055  -9.537  1.00 20.00    -0.268  OA
BRANCH   4   5
HETATM    5  C1  NAD X   1       1.120 -10.329  -9.912  1.00 20.00     0.187   C
BRANCH   5   6
HETATM    6  C2  NAD X   1       2.520 -10.125 -10.424  1.00 20.00     0.181   C
HETATM    7  C3  NAD X   1       2.554  -9.636 -11.891  1.00 20.00     0.216   C
HETATM    8  C4  NAD X   1       3.591 -10.539 -12.582  1.00 20.00     0.234   C
HETATM    9  O5  NAD X   1       2.976  -8.251 -11.849  1.00 20.00    -0.218  OA
HETATM   10  C5  NAD X   1       4.391 -11.123 -11.389  1.00 20.00     0.241   C
HETATM   11  O6  NAD X   1       4.345  -9.763 -13.482  1.00 20.00    -0.216  OA
HETATM   12  O4  NAD X   1       3.384 -11.321 -10.388  1.00 20.00    -0.331  OA
BRANCH  10  13
HETATM   13  N1  NAD X   1       5.121 -12.389 -11.670  1.00 20.00    -0.270   N
HETATM   14  C6  NAD X   1       6.350 -12.931 -11.999  1.00 20.00     0.182   A
HETATM   15  N2  NAD X   1       6.370 -14.247 -12.165  1.00 20.00    -0.219  NA
HETATM   16  C7  NAD X   1       5.040 -14.614 -11.975  1.00 20.00     0.155   A
HETATM   17  C8  NAD X   1       4.416 -15.843 -11.975  1.00 20.00     0.206   A
HETATM   18 C10  NAD X   1       4.274 -13.496 -11.663  1.00 20.00     0.170   A
HETATM   19  N3  NAD X   1       5.039 -16.996 -12.163  1.00 20.00    -0.125   N
HETATM   20  N4  NAD X   1       3.123 -15.868 -11.692  1.00 20.00    -0.202  NA
HETATM   21  C9  NAD X   1       2.478 -14.724 -11.477  1.00 20.00     0.202   A
HETATM   22  N5  NAD X   1       2.960 -13.502 -11.380  1.00 20.00    -0.205  NA
ENDBRANCH  10  13
ENDBRANCH   5   6
ENDBRANCH   4   5
ENDBRANCH   1   4
BRANCH   1  23
HETATM   23  O7  NAD X   1      -1.287  -7.257  -9.569  1.00 20.00    -0.180  OA
BRANCH  23  24
HETATM   24  P2  NAD X   1      -1.182  -6.242  -8.474  1.00 20.00     0.418   P
HETATM   25  O8  NAD X   1      -0.205  -5.231  -8.989  1.00 20.00    -0.624  OA
HETATM   26  O9  NAD X   1      -1.159  -6.734  -7.068  1.00 20.00    -0.624  OA
BRANCH  24  27
HETATM   27 O10  NAD X   1      -2.487  -5.367  -8.813  1.00 20.00    -0.268  OA
BRANCH  27  28
HETATM   28 C11  NAD X   1      -3.049  -4.392  -7.938  1.00 20.00     0.187   C
BRANCH  28  29
HETATM   29 C12  NAD X   1      -1.973  -3.999  -6.916  1.00 20.00     0.181   C
HETATM   30 O11  NAD X   1      -0.687  -4.576  -7.293  1.00 20.00    -0.331  OA
HETATM   31 C15  NAD X   1       0.248  -3.520  -7.087  1.00 20.00     0.239   C
HETATM   32 C14  NAD X   1      -0.486  -2.273  -7.512  1.00 20.00     0.234   C
HETATM   33 C13  NAD X   1      -1.818  -2.478  -6.876  1.00 20.00     0.216   C
HETATM   34 O13  NAD X   1       0.152  -1.179  -6.921  1.00 20.00    -0.216  OA
HETATM   35 O12  NAD X   1      -1.751  -2.127  -5.542  1.00 20.00    -0.218  OA
BRANCH  31  36
HETATM   36  N6  NAD X   1       1.486  -3.768  -7.803  1.00 20.00    -0.301   N
HETATM   37 C16  NAD X   1       2.214  -2.646  -8.176  1.00 20.00     0.082   C
HETATM   38 C17  NAD X   1       3.436  -2.569  -8.778  1.00 20.00     0.063   C
HETATM   39 C19  NAD X   1       3.796  -3.832  -9.153  1.00 20.00     0.007   C
HETATM   40 C20  NAD X   1       3.082  -5.044  -8.946  1.00 20.00     0.019   C
HETATM   41 C21  NAD X   1       1.867  -4.999  -8.201  1.00 20.00     0.078   C
BRANCH  38  42
HETATM   42 C18  NAD X   1       4.182  -1.368  -9.190  1.00 20.00     0.234   C
HETATM   43  N7  NAD X   1       4.775  -1.227 -10.365  1.00 20.00    -0.118   N
HETATM   44 O14  NAD X   1       4.452  -0.343  -8.372  1.00 20.00    -0.167  OA
ENDBRANCH  38  42
ENDBRANCH  31  36
ENDBRANCH  28  29
ENDBRANCH  27  28
ENDBRANCH  24  27
ENDBRANCH  23  24
ENDBRANCH   1  23
TORSDOF 11