ROOT
HETATM    1  P1  NAD X   1      -0.002  -7.611  -9.072  1.00 20.00     0.418   P
HETATM    2  O1  NAD X   1      -0.464  -8.826  -9.856  1.00 20.00    -0.624  OA
HETATM    3  O2  NAD X   1       1.053  -6.743  -9.683  1.00 20.00    -0.624  OA
ENDROOT
BRANCH   1   4
HETATM    4  O3  NAD X   1       0.691  -8.111  -7.657  1.00 20.00    -0.268  OA
BRANCH   4   5
HETATM    5  C1  NAD X   1       1.674  -9.158  -7.438  1.00 20.00     0.187   C
BRANCH   5   6
HETATM    6  C2  NAD X   1       3.065  -8.609  -7.602  1.00 20.00     0.181   C
HETATM    7  C3  NAD X   1       3.484  -8.476  -9.084  1.00 20.00     0.216   C
HETATM    8  C4  NAD X   1       4.888  -9.102  -9.154  1.00 20.00     0.234   C
HETATM    9  O5  NAD X   1       3.502  -7.057  -9.377  1.00 20.00    -0.218  OA
HETATM   10  C5  NAD X   1       5.341  -9.099  -7.671  1.00 20.00     0.241   C
HETATM   11  O6  NAD X   1       5.688  -8.336 -10.023  1.00 20.00    -0.216  OA
HETATM   12  O4  NAD X   1       4.133  -9.400  -6.961  1.00 20.00    -0.331  OA
BRANCH  10  13
HETATM   13  N1  NAD X   1       6.416 -10.070  -7.332  1.00 20.00    -0.270   N
HETATM   14  C6  NAD X   1       6.752 -11.411  -7.297  1.00 20.00     0.182   A
HETATM   15  N2  NAD X   1       7.957 -11.688  -6.817  1.00 20.00    -0.219  NA
HETATM   16  C7  NAD X   1       8.455 -10.437  -6.460  1.00 20.00     0.155   A
HETATM   17  C8  NAD X   1       9.670 -10.044  -5.942  1.00 20.00     0.206   A
HETATM   18 C10  NAD X   1       7.533  -9.446  -6.779  1.00 20.00     0.170   A
HETATM   19  N3  NAD X   1      10.672 -10.869  -5.682  1.00 20.00    -0.125   N
HETATM   20  N4  NAD X   1       9.866  -8.747  -5.771  1.00 20.00    -0.202  NA
HETATM   21  C9  NAD X   1       8.882  -7.894  -6.046  1.00 20.00     0.202   A
HETATM   22  N5  NAD X   1       7.712  -8.125  -6.604  1.00 20.00    -0.205  NA
ENDBRANCH  10  13
ENDBRANCH   5   6
ENDBRANCH   4   5
ENDBRANCH   1   4
BRANCH   1  23
HETATM   23  O7  NAD X   1      -1.392  -7.093  -8.737  1.00 20.00    -0.180  OA
BRANCH  23  24
HETATM   24  P2  NAD X   1      -2.578  -7.635  -8.003  1.00 20.00     0.418   P
HETATM   25  O8  NAD X   1      -2.235  -7.470  -6.555  1.00 20.00    -0.624  OA
HETATM   26  O9  NAD X   1      -3.223  -8.867  -8.537  1.00 20.00    -0.624  OA
BRANCH  24  27
HETATM   27 O10  NAD X   1      -3.533  -6.344  -8.073  1.00 20.00    -0.268  OA
BRANCH  27  28
HETATM   28 C11  NAD X   1      -4.922  -6.355  -7.753  1.00 20.00     0.187   C
BRANCH  28  29
HETATM   29 C12  NAD X   1      -5.104  -5.619  -6.419  1.00 20.00     0.181   C
HETATM   30 O11  NAD X   1      -3.856  -4.974  -6.025  1.00 20.00    -0.331  OA
HETATM   31 C15  NAD X   1      -4.253  -3.684  -5.568  1.00 20.00     0.239   C
HETATM   32 C14  NAD X   1      -5.374  -3.281  -6.493  1.00 20.00     0.234   C
HETATM   33 C13  NAD X   1      -6.176  -4.536  -6.558  1.00 20.00     0.216   C
HETATM   34 O13  NAD X   1      -6.117  -2.283  -5.856  1.00 20.00    -0.216  OA
HETATM   35 O12  NAD X   1      -6.975  -4.630  -5.436  1.00 20.00    -0.218  OA
BRANCH  31  36
HETATM   36  N6  NAD X   1      -3.129  -2.766  -5.544  1.00 20.00    -0.301   N
HETATM   37 C16  NAD X   1      -2.705  -2.348  -4.289  1.00 20.00     0.082   C
HETATM   38 C17  NAD X   1      -1.641  -1.565  -3.952  1.00 20.00     0.063   C
HETATM   39 C19  NAD X   1      -1.111  -1.064  -5.106  1.00 20.00     0.007   C
HETATM   40 C20  NAD X   1      -1.532  -1.310  -6.442  1.00 20.00     0.019   C
HETATM   41 C21  NAD X   1      -2.589  -2.240  -6.662  1.00 20.00     0.078   C
BRANCH  38  42
HETATM   42 C18  NAD X   1      -1.221  -1.111  -2.615  1.00 20.00     0.234   C
HETATM   43  N7  NAD X   1      -0.176  -1.593  -1.960  1.00 20.00    -0.118   N
HETATM   44 O14  NAD X   1      -1.927  -0.257  -1.864  1.00 20.00    -0.167  OA
ENDBRANCH  38  42
ENDBRANCH  31  36
ENDBRANCH  28  29
ENDBRANCH  27  28
ENDBRANCH  24  27
ENDBRANCH  23  24
ENDBRANCH   1  23
TORSDOF 11