ROOT
HETATM    1  P1  NAD X   1       1.064  -8.378  -8.994  1.00 20.00     0.418   P
HETATM    2  O1  NAD X   1       0.350  -8.939 -10.210  1.00 20.00    -0.624  OA
HETATM    3  O2  NAD X   1       2.312  -7.582  -9.220  1.00 20.00    -0.624  OA
ENDROOT
BRANCH   1   4
HETATM    4  O3  NAD X   1       1.579  -9.627  -8.042  1.00 20.00    -0.268  OA
BRANCH   4   5
HETATM    5  C1  NAD X   1       2.192 -10.885  -8.433  1.00 20.00     0.187   C
BRANCH   5   6
HETATM    6  C2  NAD X   1       1.933 -11.159  -9.890  1.00 20.00     0.181   C
HETATM    7  C3  NAD X   1       2.139 -12.645 -10.264  1.00 20.00     0.216   C
HETATM    8  C4  NAD X   1       3.004 -12.614 -11.537  1.00 20.00     0.234   C
HETATM    9  O5  NAD X   1       0.820 -13.190 -10.512  1.00 20.00    -0.218  OA
HETATM   10  C5  NAD X   1       2.819 -11.160 -12.044  1.00 20.00     0.241   C
HETATM   11  O6  NAD X   1       2.556 -13.614 -12.419  1.00 20.00    -0.216  OA
HETATM   12  O4  NAD X   1       2.773 -10.396 -10.833  1.00 20.00    -0.331  OA
BRANCH  10  13
HETATM   13  N1  NAD X   1       3.888 -10.660 -12.951  1.00 20.00    -0.270   N
HETATM   14  C6  NAD X   1       4.951  -9.783 -13.062  1.00 20.00     0.182   A
HETATM   15  N2  NAD X   1       5.557  -9.763 -14.242  1.00 20.00    -0.219  NA
HETATM   16  C7  NAD X   1       4.816 -10.668 -14.997  1.00 20.00     0.155   A
HETATM   17  C8  NAD X   1       4.962 -11.123 -16.290  1.00 20.00     0.206   A
HETATM   18 C10  NAD X   1       3.807 -11.228 -14.221  1.00 20.00     0.170   A
HETATM   19  N3  NAD X   1       5.933 -10.748 -17.108  1.00 20.00    -0.125   N
HETATM   20  N4  NAD X   1       4.117 -12.053 -16.705  1.00 20.00    -0.202  NA
HETATM   21  C9  NAD X   1       3.145 -12.464 -15.895  1.00 20.00     0.202   A
HETATM   22  N5  NAD X   1       2.936 -12.167 -14.629  1.00 20.00    -0.205  NA
ENDBRANCH  10  13
ENDBRANCH   5   6
ENDBRANCH   4   5
ENDBRANCH   1   4
BRANCH   1  23
HETATM   23  O7  NAD X   1      -0.172  -7.786  -8.335  1.00 20.00    -0.180  OA
BRANCH  23  24
HETATM   24  P2  NAD X   1      -0.424  -6.892  -7.161  1.00 20.00     0.418   P
HETATM   25  O8  NAD X   1      -1.086  -7.775  -6.149  1.00 20.00    -0.624  OA
HETATM   26  O9  NAD X   1      -0.881  -5.501  -7.431  1.00 20.00    -0.624  OA
BRANCH  24  27
HETATM   27 O10  NAD X   1       1.030  -6.955  -6.477  1.00 20.00    -0.268  OA
BRANCH  27  28
HETATM   28 C11  NAD X   1       2.159  -7.606  -7.053  1.00 20.00     0.187   C
BRANCH  28  29
HETATM   29 C12  NAD X   1       2.066  -9.100  -6.716  1.00 20.00     0.181   C
HETATM   30 O11  NAD X   1       2.291  -9.900  -7.915  1.00 20.00    -0.331  OA
HETATM   31 C15  NAD X   1       3.155 -10.949  -7.482  1.00 20.00     0.239   C
HETATM   32 C14  NAD X   1       4.083 -10.294  -6.491  1.00 20.00     0.234   C
HETATM   33 C13  NAD X   1       3.132  -9.474  -5.686  1.00 20.00     0.216   C
HETATM   34 O13  NAD X   1       4.632 -11.298  -5.689  1.00 20.00    -0.216  OA
HETATM   35 O12  NAD X   1       2.509 -10.278  -4.751  1.00 20.00    -0.218  OA
BRANCH  31  36
HETATM   36  N6  NAD X   1       3.819 -11.581  -8.608  1.00 20.00    -0.301   N
HETATM   37 C16  NAD X   1       5.169 -11.862  -8.444  1.00 20.00     0.082   C
HETATM   38 C17  NAD X   1       6.023 -12.515  -9.284  1.00 20.00     0.063   C
HETATM   39 C19  NAD X   1       5.374 -12.714 -10.468  1.00 20.00     0.007   C
HETATM   40 C20  NAD X   1       4.039 -12.357 -10.805  1.00 20.00     0.019   C
HETATM   41 C21  NAD X   1       3.214 -11.780  -9.796  1.00 20.00     0.078   C
BRANCH  38  42
HETATM   42 C18  NAD X   1       7.461 -12.784  -9.103  1.00 20.00     0.234   C
HETATM   43  N7  NAD X   1       8.423 -12.135  -9.740  1.00 20.00    -0.118   N
HETATM   44 O14  NAD X   1       7.942 -13.800  -8.377  1.00 20.00    -0.167  OA
ENDBRANCH  38  42
ENDBRANCH  31  36
ENDBRANCH  28  29
ENDBRANCH  27  28
ENDBRANCH  24  27
ENDBRANCH  23  24
ENDBRANCH   1  23
TORSDOF 11