ROOT
HETATM    1  P1  NAD X   1       0.951  -5.175  -8.994  1.00 20.00     0.418   P
HETATM    2  O1  NAD X   1       0.237  -5.737 -10.210  1.00 20.00    -0.624  OA
HETATM    3  O2  NAD X   1       2.199  -4.380  -9.220  1.00 20.00    -0.624  OA
ENDROOT
BRANCH   1   4
HETATM    4  O3  NAD X   1       1.465  -6.425  -8.042  1.00 20.00    -0.268  OA
BRANCH   4   5
HETATM    5  C1  NAD X   1       2.078  -7.683  -8.433  1.00 20.00     0.187   C
BRANCH   5   6
HETATM    6  C2  NAD X   1       1.819  -7.957  -9.890  1.00 20.00     0.181   C
HETATM    7  C3  NAD X   1       1.450  -6.681 -10.681  1.00 20.00     0.216   C
HETATM    8  C4  NAD X   1       0.207  -7.071 -11.500  1.00 20.00     0.234   C
HETATM    9  O5  NAD X   1       2.589  -6.380 -11.525  1.00 20.00    -0.218  OA
HETATM   10  C5  NAD X   1       0.257  -8.621 -11.485  1.00 20.00     0.241   C
HETATM   11  O6  NAD X   1       0.296  -6.486 -12.776  1.00 20.00    -0.216  OA
HETATM   12  O4  NAD X   1       0.735  -8.919 -10.167  1.00 20.00    -0.331  OA
BRANCH  10  13
HETATM   13  N1  NAD X   1      -1.040  -9.303 -11.749  1.00 20.00    -0.270   N
HETATM   14  C6  NAD X   1      -1.794 -10.430 -11.478  1.00 20.00     0.182   A
HETATM   15  N2  NAD X   1      -2.969 -10.493 -12.092  1.00 20.00    -0.219  NA
HETATM   16  C7  NAD X   1      -2.987  -9.338 -12.869  1.00 20.00     0.155   A
HETATM   17  C8  NAD X   1      -3.946  -8.805 -13.704  1.00 20.00     0.206   A
HETATM   18 C10  NAD X   1      -1.826  -8.601 -12.660  1.00 20.00     0.170   A
HETATM   19  N3  NAD X   1      -5.132  -9.351 -13.920  1.00 20.00    -0.125   N
HETATM   20  N4  NAD X   1      -3.683  -7.634 -14.261  1.00 20.00    -0.202  NA
HETATM   21  C9  NAD X   1      -2.506  -7.054 -14.042  1.00 20.00     0.202   A
HETATM   22  N5  NAD X   1      -1.540  -7.415 -13.223  1.00 20.00    -0.205  NA
ENDBRANCH  10  13
ENDBRANCH   5   6
ENDBRANCH   4   5
ENDBRANCH   1   4
BRANCH   1  23
HETATM   23  O7  NAD X   1      -0.286  -4.584  -8.335  1.00 20.00    -0.180  OA
BRANCH  23  24
HETATM   24  P2  NAD X   1      -0.537  -3.690  -7.161  1.00 20.00     0.418   P
HETATM   25  O8  NAD X   1      -0.100  -4.492  -5.974  1.00 20.00    -0.624  OA
HETATM   26  O9  NAD X   1      -1.785  -2.876  -7.161  1.00 20.00    -0.624  OA
BRANCH  24  27
HETATM   27 O10  NAD X   1       0.797  -2.796  -7.231  1.00 20.00    -0.268  OA
BRANCH  27  28
HETATM   28 C11  NAD X   1       2.110  -3.326  -7.393  1.00 20.00     0.187   C
BRANCH  28  29
HETATM   29 C12  NAD X   1       2.617  -3.764  -6.013  1.00 20.00     0.181   C
HETATM   30 O11  NAD X   1       3.182  -5.107  -6.088  1.00 20.00    -0.331  OA
HETATM   31 C15  NAD X   1       4.381  -5.028  -5.322  1.00 20.00     0.239   C
HETATM   32 C14  NAD X   1       4.937  -3.659  -5.622  1.00 20.00     0.234   C
HETATM   33 C13  NAD X   1       3.712  -2.813  -5.529  1.00 20.00     0.216   C
HETATM   34 O13  NAD X   1       5.819  -3.320  -4.593  1.00 20.00    -0.216  OA
HETATM   35 O12  NAD X   1       3.438  -2.542  -4.203  1.00 20.00    -0.218  OA
BRANCH  31  36
HETATM   36  N6  NAD X   1       5.277  -6.127  -5.635  1.00 20.00    -0.301   N
HETATM   37 C16  NAD X   1       6.629  -5.897  -5.418  1.00 20.00     0.082   C
HETATM   38 C17  NAD X   1       7.683  -6.754  -5.542  1.00 20.00     0.063   C
HETATM   39 C19  NAD X   1       7.221  -7.901  -6.120  1.00 20.00     0.007   C
HETATM   40 C20  NAD X   1       5.889  -8.211  -6.508  1.00 20.00     0.019   C
HETATM   41 C21  NAD X   1       4.860  -7.269  -6.218  1.00 20.00     0.078   C
BRANCH  38  42
HETATM   42 C18  NAD X   1       9.116  -6.484  -5.331  1.00 20.00     0.234   C
HETATM   43  N7  NAD X   1       9.956  -7.334  -4.760  1.00 20.00    -0.118   N
HETATM   44 O14  NAD X   1       9.694  -5.302  -5.574  1.00 20.00    -0.167  OA
ENDBRANCH  38  42
ENDBRANCH  31  36
ENDBRANCH  28  29
ENDBRANCH  27  28
ENDBRANCH  24  27
ENDBRANCH  23  24
ENDBRANCH   1  23
TORSDOF 11