ROOT
HETATM    1  C1  KNI B 900       6.848   1.181   6.159  1.00 31.81     0.117 A 
HETATM    2  C2  KNI B 900       6.303   2.017   7.116  1.00 31.46     0.034 A 
HETATM    3  C3  KNI B 900       6.886   3.273   7.363  1.00 30.02     0.010 A 
HETATM    4  C4  KNI B 900       7.991   3.592   6.613  1.00 31.19    -0.006 A 
HETATM    5  C5  KNI B 900       8.468   2.649   5.645  1.00 31.22     0.128 A 
HETATM    6  C6  KNI B 900       6.352   4.170   8.347  1.00 28.81     0.080 A 
HETATM    7  C7  KNI B 900       7.000   5.388   8.521  1.00 29.66     0.038 A 
HETATM    8  C8  KNI B 900       8.109   5.715   7.774  1.00 32.04     0.004 A 
HETATM    9  C9  KNI B 900       8.629   4.846   6.816  1.00 32.83     0.014 A 
HETATM   10  N1  KNI B 900       7.907   1.459   5.427  1.00 32.44    -0.272 NA
ENDROOT
BRANCH   6  11
HETATM   11  O1  KNI B 900       5.235   3.791   9.082  1.00 25.21    -0.341 OA
BRANCH  11  12
HETATM   12  C10 KNI B 900       5.140   4.375  10.352  1.00 22.94     0.278 C 
BRANCH  12  13
HETATM   13  C11 KNI B 900       4.067   3.683  11.106  1.00 20.49     0.242 C 
HETATM   14  O3  KNI B 900       3.327   4.297  11.852  1.00 22.09    -0.271 OA
HETATM   15  N2  KNI B 900       3.955   2.384  10.893  1.00 21.41    -0.345 N 
HETATM   16  HN2 KNI B 900       4.542   1.915  10.237  1.00 15.00     0.163 HD
BRANCH  15  17
HETATM   17  C26 KNI B 900       3.028   1.603  11.696  1.00 22.03     0.185 C 
BRANCH  17  18
HETATM   18  C12 KNI B 900       1.944   1.001  10.835  1.00 24.82     0.108 C 
BRANCH  18  19
HETATM   19  S1  KNI B 900       0.668   0.435  11.993  1.00 31.66    -0.171 SA
HETATM   20  C27 KNI B 900      -0.158   2.056  12.160  1.00 28.64     0.089 C 
ENDBRANCH  18  19
ENDBRANCH  17  18
BRANCH  17  21
HETATM   21  C13 KNI B 900       3.783   0.542  12.457  1.00 19.38     0.241 C 
HETATM   22  O6  KNI B 900       3.758  -0.629  12.111  1.00 19.61    -0.271 OA
HETATM   23  N3  KNI B 900       4.496   0.982  13.492  1.00 17.23    -0.351 N 
HETATM   24  HN3 KNI B 900       4.476   1.951  13.750  1.00 15.00     0.163 HD
BRANCH  23  25
HETATM   25  C14 KNI B 900       5.350   0.082  14.274  1.00 18.12     0.126 C 
BRANCH  25  26
HETATM   26  C15 KNI B 900       4.705  -0.180  15.642  1.00 17.64     0.233 C 
BRANCH  26  27
HETATM   27  C17 KNI B 900       5.339  -1.386  16.330  1.00 19.01     0.252 C 
HETATM   28  O4  KNI B 900       6.324  -1.234  17.045  1.00 17.77    -0.270 OA
HETATM   29  N4  KNI B 900       4.742  -2.565  16.064  1.00 20.71    -0.327 N 
HETATM   30  C20 KNI B 900       3.544  -2.664  15.224  1.00 20.81     0.201 C 
HETATM   31  C18 KNI B 900       5.373  -3.819  16.506  1.00 19.84     0.189 C 
HETATM   32  S2  KNI B 900       3.263  -4.440  14.973  1.00 25.22    -0.147 SA
HETATM   33  C19 KNI B 900       4.427  -4.993  16.258  1.00 18.96     0.110 C 
BRANCH  31  34
HETATM   34  C21 KNI B 900       6.653  -3.979  15.741  1.00 19.96     0.242 C 
HETATM   35  O5  KNI B 900       6.746  -3.574  14.588  1.00 21.99    -0.271 OA
HETATM   36  N5  KNI B 900       7.637  -4.575  16.403  1.00 16.49    -0.351 N 
HETATM   37  HN5 KNI B 900       7.441  -4.932  17.320  1.00 15.00     0.163 HD
BRANCH  36  38
HETATM   38  C22 KNI B 900       9.013  -4.639  15.892  1.00 17.46     0.022 C 
HETATM   39  C23 KNI B 900       9.556  -3.249  15.542  1.00 17.61     0.037 C 
HETATM   40  C24 KNI B 900       9.097  -5.567  14.678  1.00 18.08     0.037 C 
HETATM   41  C25 KNI B 900       9.880  -5.183  17.021  1.00 17.58     0.037 C 
ENDBRANCH  36  38
ENDBRANCH  31  34
ENDBRANCH  26  27
BRANCH  26  42
HETATM   42  O2  KNI B 900       4.949   0.934  16.427  1.00 17.78    -0.384 OA
HETATM   43  HO2 KNI B 900       5.877   0.783  16.664  1.00 15.00     0.210 HD
ENDBRANCH  26  42
ENDBRANCH  25  26
BRANCH  25  44
HETATM   44  C16 KNI B 900       6.775   0.654  14.347  1.00 17.12     0.066 C 
BRANCH  44  45
HETATM   45  C28 KNI B 900       7.372   0.900  12.976  1.00 19.72    -0.056 A 
HETATM   46  C29 KNI B 900       7.401   2.166  12.426  1.00 20.68     0.007 A 
HETATM   47  C30 KNI B 900       7.949   2.368  11.171  1.00 21.38     0.001 A 
HETATM   48  C31 KNI B 900       8.465   1.319  10.446  1.00 20.30     0.000 A 
HETATM   49  C32 KNI B 900       8.437   0.066  10.993  1.00 20.29     0.001 A 
HETATM   50  C33 KNI B 900       7.899  -0.146  12.245  1.00 20.35     0.007 A 
ENDBRANCH  44  45
ENDBRANCH  25  44
ENDBRANCH  23  25
ENDBRANCH  17  21
ENDBRANCH  15  17
ENDBRANCH  12  13
ENDBRANCH  11  12
ENDBRANCH   6  11
TORSDOF 15
