ROOT
HETATM    1  N01 NM1 B 501      11.349  23.709   5.942  1.00 21.99    -0.236 N 
HETATM    2  S02 NM1 B 501      11.806  22.203   6.446  1.00 23.13     0.327 S 
HETATM    3  N03 NM1 B 501      13.431  22.292   6.215  1.00 20.53    -0.254 N 
HETATM    4  C04 NM1 B 501      13.851  22.223   4.796  1.00 23.50     0.157 C 
HETATM    5  C05 NM1 B 501      14.022  23.605   4.144  1.00 20.11     0.208 C 
HETATM    6  C06 NM1 B 501      13.048  24.679   4.615  1.00 20.62     0.208 C 
HETATM    7  C07 NM1 B 501      11.556  24.303   4.610  1.00 20.49     0.162 C 
HETATM    8  O15 NM1 B 501      11.236  21.156   5.599  1.00 19.88    -0.182 OA
HETATM    9  O30 NM1 B 501      15.320  24.102   4.395  1.00 21.02    -0.218 OA
HETATM   10  O31 NM1 B 501      13.274  25.832   3.814  1.00 18.62    -0.218 OA
HETATM   11  O40 NM1 B 501      11.584  22.102   7.888  1.00 22.68    -0.182 OA
ENDROOT
BRANCH   1  12
HETATM   12  C08 NM1 B 501      10.170  24.189   6.519  1.00 24.06     0.088 C 
BRANCH  12  13
HETATM   13  C09 NM1 B 501       9.892  25.457   7.218  1.00 23.29     0.018 A 
HETATM   14  C10 NM1 B 501       8.825  26.293   6.815  1.00 22.54     0.006 A 
HETATM   15  C11 NM1 B 501       8.600  27.521   7.490  1.00 25.39     0.058 A 
HETATM   16  C12 NM1 B 501       9.456  27.914   8.582  1.00 24.01     0.005 A 
HETATM   17  C13 NM1 B 501      10.527  27.076   8.987  1.00 23.46     0.000 A 
HETATM   18  C14 NM1 B 501      10.745  25.849   8.302  1.00 22.88     0.002 A 
BRANCH  15  19
HETATM   19  C51 NM1 B 501       7.487  28.417   7.050  1.00 26.95     0.275 C 
HETATM   20  O52 NM1 B 501       7.660  29.662   7.084  1.00 26.78    -0.266 OA
HETATM   21  N53 NM1 B 501       6.290  27.868   6.633  1.00 25.95    -0.232 NA
HETATM   22  C54 NM1 B 501       5.236  28.784   6.247  1.00 27.69     0.155 C 
ENDBRANCH  15  19
ENDBRANCH  12  13
ENDBRANCH   1  12
BRANCH   7  23
HETATM   23  C32 NM1 B 501      10.913  23.466   3.470  1.00 22.38     0.175 C 
BRANCH  23  24
HETATM   24  O33 NM1 B 501       9.472  23.505   3.658  1.00 24.70    -0.329 OA
BRANCH  24  25
HETATM   25  C34 NM1 B 501       8.661  24.401   3.003  1.00 25.64     0.094 A 
HETATM   26  C35 NM1 B 501       9.116  25.712   2.605  1.00 26.05     0.024 A 
HETATM   27  C36 NM1 B 501       8.244  26.618   1.933  1.00 28.20     0.002 A 
HETATM   28  C37 NM1 B 501       6.900  26.230   1.653  1.00 26.48     0.000 A 
HETATM   29  C38 NM1 B 501       6.432  24.943   2.037  1.00 28.53     0.002 A 
HETATM   30  C39 NM1 B 501       7.313  24.033   2.707  1.00 27.29     0.024 A 
ENDBRANCH  24  25
ENDBRANCH  23  24
ENDBRANCH   7  23
BRANCH   3  31
HETATM   31  C23 NM1 B 501      14.271  22.898   7.306  1.00 23.78     0.141 C 
BRANCH  31  32
HETATM   32  C24 NM1 B 501      15.213  22.033   8.110  1.00 24.24     0.001 A 
HETATM   33  C25 NM1 B 501      14.698  21.122   9.083  1.00 26.41    -0.002 A 
HETATM   34  C26 NM1 B 501      15.588  20.294   9.842  1.00 26.76    -0.000 A 
HETATM   35  C27 NM1 B 501      17.005  20.379   9.626  1.00 27.91    -0.000 A 
HETATM   36  C28 NM1 B 501      17.531  21.294   8.653  1.00 27.82    -0.000 A 
HETATM   37  C29 NM1 B 501      16.634  22.115   7.901  1.00 26.57    -0.002 A 
ENDBRANCH  31  32
ENDBRANCH   3  31
BRANCH   4  38
HETATM   38  C41 NM1 B 501      15.082  21.332   4.600  1.00 23.97     0.174 C 
BRANCH  38  39
HETATM   39  O16 NM1 B 501      14.854  20.350   3.560  1.00 27.68    -0.329 OA
BRANCH  39  40
HETATM   40  C17 NM1 B 501      15.864  19.459   3.222  1.00 27.94     0.094 A 
HETATM   41  C18 NM1 B 501      16.840  19.017   4.190  1.00 28.82     0.024 A 
HETATM   42  C19 NM1 B 501      17.875  18.098   3.830  1.00 28.02     0.002 A 
HETATM   43  C20 NM1 B 501      17.943  17.605   2.489  1.00 28.29     0.000 A 
HETATM   44  C21 NM1 B 501      16.985  18.030   1.517  1.00 27.44     0.002 A 
HETATM   45  C22 NM1 B 501      15.954  18.953   1.885  1.00 27.39     0.024 A 
ENDBRANCH  39  40
ENDBRANCH  38  39
ENDBRANCH   4  38
TORSDOF 11
