ROOT
HETATM    1  N1  PI8 A 201       4.601   2.026  12.062  1.00 19.18    -0.233 NA
HETATM    2  C10 PI8 A 201       5.285   0.946  12.429  1.00 20.55     0.252 C 
HETATM    3  O2  PI8 A 201       5.057  -0.181  11.977  1.00 19.25    -0.271 OA
ENDROOT
BRANCH   1   4
HETATM    4  C2  PI8 A 201       3.532   1.946  11.050  1.00 20.16     0.159 C 
HETATM    5  C1  PI8 A 201       3.453   3.326  10.442  1.00 18.07     0.183 C 
HETATM    6  O1  PI8 A 201       3.769   4.311  11.431  1.00 18.53    -0.221 OA
HETATM    7  C9  PI8 A 201       2.044   3.496  10.013  1.00 20.10     0.061 C 
HETATM    8  C8  PI8 A 201       1.275   2.587  10.931  1.00 21.45    -0.022 A 
HETATM    9  C3  PI8 A 201       2.140   1.692  11.535  1.00 20.72    -0.001 A 
HETATM   10  C7  PI8 A 201      -0.080   2.552  11.214  1.00 22.09    -0.004 A 
HETATM   11  C4  PI8 A 201       1.665   0.748  12.432  1.00 19.11    -0.003 A 
HETATM   12  C5  PI8 A 201       0.306   0.699  12.728  1.00 21.94    -0.000 A 
HETATM   13  C6  PI8 A 201      -0.572   1.607  12.116  1.00 22.40    -0.000 A 
ENDBRANCH   1   4
BRANCH   2  14
HETATM   14  C11 PI8 A 201       6.391   1.167  13.471  1.00 20.30     0.090 C 
BRANCH  14  15
HETATM   15  C12 PI8 A 201       7.743   1.292  12.774  1.00 22.19     0.036 C 
BRANCH  15  16
HETATM   16  C13 PI8 A 201       7.738   2.240  11.618  1.00 23.03    -0.022 A 
HETATM   17  C18 PI8 A 201       7.723   1.762  10.313  1.00 23.56    -0.004 A 
HETATM   18  C17 PI8 A 201       7.696   2.640   9.239  1.00 24.81    -0.000 A 
HETATM   19  C16 PI8 A 201       7.684   4.014   9.467  1.00 25.23    -0.000 A 
HETATM   20  C15 PI8 A 201       7.701   4.499  10.767  1.00 24.54    -0.000 A 
HETATM   21  C14 PI8 A 201       7.728   3.613  11.833  1.00 24.49    -0.004 A 
ENDBRANCH  15  16
ENDBRANCH  14  15
BRANCH  14  22
HETATM   22  C19 PI8 A 201       6.445  -0.018  14.421  1.00 17.94     0.074 C 
HETATM   23  C20 PI8 A 201       5.187  -0.292  15.223  0.50 18.98     0.188 C 
HETATM   24  O3A PI8 A 201       5.281   0.339  16.506  0.50 18.23    -0.221 OA
HETATM   25  C21 PI8 A 201       5.096  -1.790  15.393  0.50 20.52     0.284 C 
HETATM   26  N2  PI8 A 201       3.915  -2.148  16.170  1.00 17.66     0.150 N 
HETATM   27  C21 PI8 A 201       5.240  -1.508  16.082  0.50 19.16     0.284 C 
HETATM   28  C20 PI8 A 201       5.173  -0.227  15.250  0.50 19.50     0.188 C 
HETATM   29  O3  PI8 A 201       4.968   0.894  16.119  0.50 21.49    -0.221 OA
BRANCH  26  30
HETATM   30  C22 PI8 A 201       4.058  -3.482  16.762  1.00 19.21     0.303 C 
HETATM   31  C23 PI8 A 201       2.716  -4.219  16.707  1.00 18.71     0.070 C 
HETATM   32  C24 PI8 A 201       2.830  -5.692  16.995  1.00 20.63    -0.020 A 
HETATM   33  C25 PI8 A 201       2.898  -6.160  18.305  1.00 21.72    -0.002 A 
HETATM   34  C29 PI8 A 201       2.924  -6.616  15.955  1.00 20.00    -0.002 A 
HETATM   35  C26 PI8 A 201       3.065  -7.515  18.575  1.00 25.67     0.024 A 
HETATM   36  C27 PI8 A 201       3.164  -8.418  17.524  1.00 26.10     0.094 A 
HETATM   37  C28 PI8 A 201       3.093  -7.970  16.212  1.00 25.78     0.024 A 
HETATM   38  O6  PI8 A 201       3.352  -9.770  17.750  0.50 27.31    -0.331 OA
HETATM   39  C41 PI8 A 201       3.778 -10.307  18.995  0.50 26.00     0.149 C 
HETATM   40  C40 PI8 A 201       5.248 -10.006  19.257  0.50 25.69     0.033 C 
HETATM   41  C39 PI8 A 201       6.134 -10.503  18.127  0.50 26.93     0.005 C 
HETATM   42  C38 PI8 A 201       7.609 -10.301  18.446  0.50 27.90     0.026 C 
HETATM   43  C37 PI8 A 201       7.915  -8.864  18.856  1.00 26.49     0.129 C 
HETATM   44  N4  PI8 A 201       7.645  -7.894  17.779  1.00 26.52    -0.236 NA
HETATM   45  C36 PI8 A 201       7.430  -6.595  17.978  1.00 22.84     0.272 C 
HETATM   46  C31 PI8 A 201       7.166  -5.745  16.733  1.00 21.43     0.159 C 
HETATM   47  O5  PI8 A 201       7.400  -6.084  19.104  1.00 24.71    -0.269 OA
HETATM   48  N3  PI8 A 201       6.083  -4.800  17.079  1.00 19.03    -0.231 NA
HETATM   49  C30 PI8 A 201       5.173  -4.383  16.200  1.00 20.46     0.283 C 
HETATM   50  O4  PI8 A 201       5.248  -4.621  14.994  1.00 22.68    -0.268 OA
BRANCH  46  51
HETATM   51  C32 PI8 A 201       8.486  -5.029  16.337  0.50 22.46     0.029 C 
HETATM   52  C33 PI8 A 201       9.181  -5.810  15.217  0.50 24.59     0.002 C 
BRANCH  51  53
HETATM   53  C34 PI8 A 201       8.217  -3.599  15.865  0.50 23.35     0.002 C 
HETATM   54  C35 PI8 A 201       9.394  -2.939  15.229  0.50 22.81     0.000 C 
ENDBRANCH  51  53
ENDBRANCH  46  51
BRANCH  46  55
HETATM   55  C32 PI8 A 201       8.499  -5.062  16.246  0.50 20.09     0.029 C 
HETATM   56  C33 PI8 A 201       8.446  -3.542  16.334  0.50 21.21     0.002 C 
BRANCH  55  57
HETATM   57  C34 PI8 A 201       9.697  -5.633  17.008  0.50 17.69     0.002 C 
HETATM   58  C35 PI8 A 201      10.957  -4.893  16.813  0.50 17.72     0.000 C 
ENDBRANCH  55  57
ENDBRANCH  46  55
ENDBRANCH  26  30
ENDBRANCH  14  22
ENDBRANCH   2  14
TORSDOF 10
