ROOT
HETATM    1  CZ8 U02 A 100       4.014  25.480   1.328  1.00 52.80     0.030 C 
HETATM    2  CZ7 U02 A 100       5.323  24.029   2.861  1.00 39.90     0.030 C 
HETATM    3  CZ6 U02 A 100       6.461  25.101   0.909  1.00 43.60     0.030 C 
HETATM    4  CZ5 U02 A 100       5.382  25.289   1.986  1.00 49.20     0.103 C 
ENDROOT
BRANCH   4   5
HETATM    5  OZ5 U02 A 100       5.787  26.481   2.690  1.00 57.20    -0.289 OA
BRANCH   5   6
HETATM    6  CZ4 U02 A 100       5.116  26.818   3.862  1.00 47.70     0.383 C 
HETATM    7  OZ4 U02 A 100       4.161  26.128   4.249  1.00 57.60    -0.236 OA
HETATM    8  NZ3 U02 A 100       5.536  27.908   4.486  1.00 23.90    -0.212 NA
BRANCH   8   9
HETATM    9  CZ3 U02 A 100       5.014  28.263   5.817  1.00 11.90     0.141 C 
BRANCH   9  10
HETATM   10  CZ2 U02 A 100       5.978  28.961   6.790  1.00  9.40     0.116 C 
BRANCH  10  11
HETATM   11  CZ1 U02 A 100       7.395  28.415   6.765  1.00 16.00     0.258 C 
HETATM   12  OZ1 U02 A 100       8.363  29.126   6.495  1.00 23.80    -0.270 OA
HETATM   13  NZ1 U02 A 100       7.538  27.125   7.015  1.00 18.60    -0.212 NA
BRANCH  13  14
HETATM   14  CB5 U02 A 100       8.864  26.639   6.934  1.00 26.10     0.084 A 
HETATM   15  CB4 U02 A 100       9.716  26.940   7.991  1.00 39.90     0.019 A 
HETATM   16  CB3 U02 A 100      11.027  26.477   8.004  1.00 39.00     0.001 A 
HETATM   17  CB2 U02 A 100      11.494  25.699   6.953  1.00 25.30    -0.004 A 
HETATM   18  CB1 U02 A 100      10.662  25.408   5.876  1.00 15.10    -0.017 A 
HETATM   19  CB6 U02 A 100       9.327  25.844   5.874  1.00 18.90     0.015 A 
BRANCH  18  20
HETATM   20  CG1 U02 A 100      11.319  24.656   4.714  1.00 14.30     0.052 C 
BRANCH  20  21
HETATM   21  CG2 U02 A 100      10.274  23.969   3.886  1.00 20.80     0.008 A 
HETATM   22  CG3 U02 A 100      10.368  23.731   2.398  1.00 24.50     0.001 A 
HETATM   23  CG4 U02 A 100       9.272  24.616   2.959  1.00 27.30     0.001 A 
ENDBRANCH  20  21
BRANCH  20  24
HETATM   24  CA  U02 A 100      12.491  23.747   5.155  1.00 15.90     0.070 A 
HETATM   25  CA2 U02 A 100      12.129  22.583   5.863  1.00 23.50     0.298 A 
HETATM   26  OA2 U02 A 100      11.003  22.154   5.905  1.00 32.10    -0.259 OA
HETATM   27  OA3 U02 A 100      13.074  21.740   6.230  1.00 22.00    -0.278 OA
HETATM   28  CA4 U02 A 100      14.378  21.950   5.952  1.00 23.90     0.083 A 
HETATM   29  CA5 U02 A 100      14.818  23.109   5.304  1.00 15.40     0.048 A 
HETATM   30  CA6 U02 A 100      13.854  24.026   4.881  1.00 11.10     0.134 A 
HETATM   31  OA6 U02 A 100      14.371  25.219   4.469  1.00  7.80    -0.190 OA
BRANCH  28  32
HETATM   32  CD  U02 A 100      15.344  20.850   6.081  1.00 22.80     0.050 C 
BRANCH  32  33
HETATM   33  CD1 U02 A 100      16.530  21.265   6.966  1.00 17.10     0.007 C 
HETATM   34  CD2 U02 A 100      16.062  22.076   8.195  1.00  8.50     0.000 C 
ENDBRANCH  32  33
BRANCH  32  35
HETATM   35  CE  U02 A 100      15.631  20.416   4.630  1.00 17.10     0.033 C 
BRANCH  35  36
HETATM   36  CE1 U02 A 100      16.818  19.506   4.390  1.00 34.10    -0.022 A 
HETATM   37  CE2 U02 A 100      17.105  19.109   3.091  1.00 56.70    -0.004 A 
HETATM   38  CE3 U02 A 100      18.202  18.294   2.840  1.00 65.60    -0.000 A 
HETATM   39  CE4 U02 A 100      19.009  17.865   3.886  1.00 61.60    -0.000 A 
HETATM   40  CE5 U02 A 100      18.707  18.257   5.184  1.00 50.00    -0.000 A 
HETATM   41  CE6 U02 A 100      17.611  19.073   5.438  1.00 57.90    -0.004 A 
ENDBRANCH  35  36
ENDBRANCH  32  35
ENDBRANCH  28  32
ENDBRANCH  20  24
ENDBRANCH  18  20
ENDBRANCH  13  14
ENDBRANCH  10  11
ENDBRANCH   9  10
ENDBRANCH   8   9
ENDBRANCH   5   6
ENDBRANCH   4   5
TORSDOF 13
