REMARK  12 active torsions:
REMARK  status: ('A' for Active; 'I' for Inactive)
REMARK    1  A    between atoms: N2_1516  and  C2_1519 
REMARK    2  A    between atoms: N7_1517  and  C7_1524 
REMARK    3  A    between atoms: C2_1519  and  C20_1539 
REMARK    4  A    between atoms: C3_1520  and  C31_1525 
REMARK    5  A    between atoms: C6_1523  and  C61_1532 
REMARK    6  A    between atoms: C7_1524  and  C70_1553 
REMARK    7  A    between atoms: C31_1525  and  C32_1526 
REMARK    8  A    between atoms: C61_1532  and  C62_1533 
REMARK    9  A    between atoms: C22_1541  and  C26_1545 
REMARK       I    between atoms: C26_1545  and  N26_1547 
REMARK   10  A    between atoms: N26_1547  and  C27_1549 
REMARK   11  A    between atoms: C72_1555  and  C76_1559 
REMARK       I    between atoms: C76_1559  and  N76_1561 
REMARK   12  A    between atoms: N76_1561  and  C77_1563 
ROOT
HETATM    1  O1  XV6 A 638      -8.239  14.332  27.722  1.00 14.88    -0.247 OA
HETATM    2  O4  XV6 A 638     -11.795  18.622  28.908  1.00 10.51    -0.219 OA
HETATM    3  O5  XV6 A 638     -10.202  19.589  26.813  1.00 14.93    -0.219 OA
HETATM    4  N2  XV6 A 638      -9.743  15.550  28.754  1.00 15.87    -0.298 N 
HETATM    5  N7  XV6 A 638      -8.756  16.196  26.694  1.00 11.03    -0.298 N 
HETATM    6  C1  XV6 A 638      -8.914  15.344  27.713  1.00 11.21     0.324 C 
HETATM    7  C3  XV6 A 638     -10.891  16.496  28.793  1.00 11.65     0.123 C 
HETATM    8  C4  XV6 A 638     -10.632  17.966  28.512  1.00 11.06     0.205 C 
HETATM    9  C5  XV6 A 638     -10.306  18.214  27.059  1.00  9.80     0.205 C 
HETATM   10  C6  XV6 A 638      -8.919  17.673  26.808  1.00 12.18     0.123 C 
ENDROOT
BRANCH   4  11
HETATM   11  C2  XV6 A 638      -9.531  14.702  29.952  1.00 16.48     0.133 C 
BRANCH  11  12
HETATM   12  C20 XV6 A 638      -9.436  15.459  31.252  1.00 15.25     0.000 A 
HETATM   13  C21 XV6 A 638     -10.158  14.980  32.356  1.00 15.89     0.002 A 
HETATM   14  C22 XV6 A 638     -10.120  15.692  33.574  1.00 18.57     0.058 A 
HETATM   15  C23 XV6 A 638      -9.361  16.879  33.687  1.00 19.07     0.005 A 
HETATM   16  C24 XV6 A 638      -8.631  17.364  32.577  1.00 17.05    -0.000 A 
HETATM   17  C25 XV6 A 638      -8.665  16.645  31.361  1.00 17.61    -0.002 A 
BRANCH  14  18
HETATM   18  C26 XV6 A 638     -10.843  15.171  34.776  1.00 22.52     0.281 C 
HETATM   19  O26 XV6 A 638     -11.256  15.890  35.674  1.00 17.61    -0.265 OA
HETATM   20  N26 XV6 A 638     -10.965  13.827  34.814  1.00 24.45    -0.183 NA
BRANCH  20  21
HETATM   21  C27 XV6 A 638     -11.529  13.135  35.979  1.00 26.10     0.197 A 
HETATM   22  N27 XV6 A 638     -11.443  11.824  36.221  1.00 28.26    -0.219 NA
HETATM   23  C28 XV6 A 638     -12.015  11.455  37.419  1.00 27.20     0.108 A 
HETATM   24  C29 XV6 A 638     -12.585  12.495  38.165  1.00 29.64     0.059 A 
HETATM   25  S29 XV6 A 638     -12.335  13.887  37.250  1.00 27.24    -0.046 SA
ENDBRANCH  20  21
ENDBRANCH  14  18
ENDBRANCH  11  12
ENDBRANCH   4  11
BRANCH   5  26
HETATM   26  C7  XV6 A 638      -8.111  15.654  25.490  1.00 11.27     0.133 C 
BRANCH  26  27
HETATM   27  C70 XV6 A 638      -8.755  15.953  24.177  1.00  8.91     0.000 A 
HETATM   28  C71 XV6 A 638      -7.925  16.244  23.096  1.00 12.12     0.002 A 
HETATM   29  C72 XV6 A 638      -8.489  16.591  21.856  1.00 10.60     0.058 A 
HETATM   30  C73 XV6 A 638      -9.887  16.634  21.701  1.00 13.93     0.005 A 
HETATM   31  C74 XV6 A 638     -10.742  16.321  22.782  1.00 10.91    -0.000 A 
HETATM   32  C75 XV6 A 638     -10.165  15.980  24.023  1.00 15.16    -0.002 A 
BRANCH  29  33
HETATM   33  C76 XV6 A 638      -7.610  16.942  20.709  1.00 15.24     0.281 C 
HETATM   34  O76 XV6 A 638      -7.937  17.739  19.851  1.00 10.93    -0.265 OA
HETATM   35  N76 XV6 A 638      -6.412  16.333  20.695  1.00 15.58    -0.183 NA
BRANCH  35  36
HETATM   36  C77 XV6 A 638      -5.402  16.574  19.643  1.00 19.75     0.197 A 
HETATM   37  N77 XV6 A 638      -4.147  16.081  19.659  1.00 19.29    -0.219 NA
HETATM   38  C78 XV6 A 638      -3.424  16.426  18.537  1.00 20.58     0.108 A 
HETATM   39  C79 XV6 A 638      -4.109  17.221  17.587  1.00 20.94     0.059 A 
HETATM   40  S79 XV6 A 638      -5.654  17.475  18.223  1.00 23.74    -0.046 SA
ENDBRANCH  35  36
ENDBRANCH  29  33
ENDBRANCH  26  27
ENDBRANCH   5  26
BRANCH   7  41
HETATM   41  C31 XV6 A 638     -12.088  15.871  28.053  1.00  7.66     0.051 C 
BRANCH  41  42
HETATM   42  C32 XV6 A 638     -12.576  14.592  28.701  1.00  9.32    -0.020 A 
HETATM   43  C33 XV6 A 638     -12.155  13.342  28.192  1.00  9.88    -0.004 A 
HETATM   44  C34 XV6 A 638     -12.577  12.161  28.826  1.00 10.78    -0.000 A 
HETATM   45  C35 XV6 A 638     -13.413  12.241  29.960  1.00  9.96    -0.000 A 
HETATM   46  C36 XV6 A 638     -13.837  13.482  30.466  1.00  8.23    -0.000 A 
HETATM   47  C37 XV6 A 638     -13.413  14.660  29.830  1.00  5.30    -0.004 A 
ENDBRANCH  41  42
ENDBRANCH   7  41
BRANCH  10  48
HETATM   48  C61 XV6 A 638      -7.846  18.250  27.770  1.00 13.45     0.051 C 
BRANCH  48  49
HETATM   49  C62 XV6 A 638      -6.439  18.064  27.237  1.00 16.94    -0.020 A 
HETATM   50  C63 XV6 A 638      -6.052  18.714  26.033  1.00 15.60    -0.004 A 
HETATM   51  C64 XV6 A 638      -4.763  18.505  25.502  1.00 16.67    -0.000 A 
HETATM   52  C65 XV6 A 638      -3.866  17.640  26.188  1.00 15.19    -0.000 A 
HETATM   53  C66 XV6 A 638      -4.254  16.997  27.395  1.00 14.57    -0.000 A 
HETATM   54  C67 XV6 A 638      -5.545  17.212  27.917  1.00 14.99    -0.004 A 
ENDBRANCH  48  49
ENDBRANCH  10  48
TORSDOF 12
